# CIF file generated by openbabel 2.4.90, see http://openbabel.sf.net
data_I
_chemical_name_common ''
_cell_length_a 14.53
_cell_length_b 15.861
_cell_length_c 16.411
_cell_angle_alpha 89.999
_cell_angle_beta 89.998
_cell_angle_gamma 89.999
_space_group_name_H-M_alt 'P 1'
_space_group_name_Hall 'P 1'
loop_
    _symmetry_equiv_pos_as_xyz
    x,y,z
loop_
    _atom_site_label
    _atom_site_type_symbol
    _atom_site_fract_x
    _atom_site_fract_y
    _atom_site_fract_z
    _atom_site_occupancy
    Zr0     Zr   0.35773   0.06152   0.22199   1.000
    Zr1     Zr   0.12228   0.97642   0.31419   1.000
    Zr2     Zr   0.14229   0.93835   0.72198   1.000
    Zr3     Zr   0.37768   0.02362   0.81415   1.000
    Zr4     Zr   0.64231   0.56152   0.27799   1.000
    Zr5     Zr   0.87777   0.47643   0.18579   1.000
    Zr6     Zr   0.85776   0.43836   0.77798   1.000
    Zr7     Zr   0.62236   0.52362   0.68581   1.000
    Zr8     Zr   0.64232   0.93846   0.77798   1.000
    Zr9     Zr   0.87776   0.02359   0.68579   1.000
    Zr10    Zr   0.85775   0.06166   0.27799   1.000
    Zr11    Zr   0.62237   0.97637   0.18582   1.000
    Zr12    Zr   0.35773   0.43847   0.72199   1.000
    Zr13    Zr   0.12228   0.52358   0.81418   1.000
    Zr14    Zr   0.14229   0.56165   0.22199   1.000
    Zr15    Zr   0.37767   0.47637   0.31417   1.000
    Zr16    Zr   0.00000   0.00000   0.00000   1.000
    Zr17    Zr   0.50002   0.00000   0.49990   1.000
    Zr18    Zr   0.00001   0.50000   0.49999   1.000
    Zr19    Zr   0.50002   0.50000   0.00000   1.000
    N20     N    0.83194   0.03879   0.48269   1.000
    O21     O    0.84491   0.03313   0.55037   1.000
    O22     O    0.83726   0.04683   0.41464   1.000
    N23     N    0.66812   0.96053   0.98267   1.000
    O24     O    0.65517   0.96655   0.05037   1.000
    O25     O    0.66280   0.95291   0.91463   1.000
    N26     N    0.10336   0.73213   0.76223   1.000
    O27     O    0.10773   0.66289   0.77971   1.000
    O28     O    0.11367   0.80078   0.74777   1.000
    N29     N    0.16810   0.53969   0.01727   1.000
    O30     O    0.15513   0.53359   0.94960   1.000
    O31     O    0.16279   0.54729   0.08533   1.000
    N32     N    0.60350   0.76780   0.23788   1.000
    O33     O    0.61378   0.69913   0.25230   1.000
    O34     O    0.60787   0.83705   0.22036   1.000
    N35     N    0.89670   0.23214   0.73773   1.000
    O36     O    0.88639   0.30079   0.75219   1.000
    O37     O    0.89232   0.16290   0.72025   1.000
    N38     N    0.33193   0.46053   0.51730   1.000
    O39     O    0.33725   0.45291   0.58534   1.000
    O40     O    0.34488   0.46655   0.44962   1.000
    N41     N    0.83195   0.46034   0.98264   1.000
    O42     O    0.83726   0.45273   0.91461   1.000
    O43     O    0.84492   0.46643   0.05027   1.000
    N44     N    0.89668   0.26788   0.23774   1.000
    O45     O    0.88637   0.19922   0.25219   1.000
    O46     O    0.89231   0.33712   0.22026   1.000
    N47     N    0.33193   0.03858   0.01730   1.000
    O48     O    0.33725   0.04663   0.08534   1.000
    O49     O    0.34488   0.03299   0.94961   1.000
    N50     N    0.10334   0.76786   0.26225   1.000
    O51     O    0.11365   0.69921   0.24779   1.000
    O52     O    0.10771   0.83711   0.27972   1.000
    N53     N    0.16809   0.96035   0.51728   1.000
    O54     O    0.15512   0.96645   0.44961   1.000
    O55     O    0.16278   0.95275   0.58533   1.000
    N56     N    0.60351   0.73218   0.73785   1.000
    O57     O    0.61378   0.80085   0.75228   1.000
    O58     O    0.60786   0.66294   0.72034   1.000
    N59     N    0.66811   0.53945   0.48256   1.000
    O60     O    0.66279   0.54706   0.41458   1.000
    O61     O    0.65516   0.53342   0.55030   1.000
    N62     N    0.39654   0.26780   0.26211   1.000
    O63     O    0.39218   0.33705   0.27963   1.000
    O64     O    0.38626   0.19914   0.24768   1.000
    N65     N    0.39654   0.23219   0.76211   1.000
    O66     O    0.39218   0.16294   0.77962   1.000
    O67     O    0.38627   0.30086   0.74769   1.000
    C68     C    0.08378   0.30799   0.82527   1.000
    O69     O    0.01945   0.28584   0.79626   1.000
    O70     O    0.08025   0.38467   0.82278   1.000
    C71     C    0.41633   0.69195   0.32530   1.000
    O72     O    0.41981   0.61526   0.32279   1.000
    O73     O    0.48070   0.71409   0.29633   1.000
    C74     C    0.65464   0.50514   0.86024   1.000
    O75     O    0.71248   0.49072   0.90345   1.000
    O76     O    0.65766   0.50573   0.80296   1.000
    O77     O    0.71651   0.48442   0.82600   1.000
    O78     O    0.60030   0.50897   0.90408   1.000
    C79     C    0.67539   0.53936   0.11188   1.000
    O80     O    0.61418   0.53155   0.07659   1.000
    O81     O    0.68065   0.54537   0.16569   1.000
    O82     O    0.73952   0.52410   0.14264   1.000
    O83     O    0.72589   0.51276   0.06650   1.000
    C84     C    0.34540   0.49486   0.13973   1.000
    O85     O    0.28757   0.50929   0.09650   1.000
    O86     O    0.34238   0.49426   0.19701   1.000
    O87     O    0.28354   0.51558   0.17397   1.000
    O88     O    0.39974   0.49103   0.09590   1.000
    C89     C    0.07411   0.39821   0.26349   1.000
    O90     O    0.01562   0.35325   0.25593   1.000
    O91     O    0.08237   0.45254   0.24449   1.000
    O92     O    0.01624   0.43124   0.23544   1.000
    C93     C    0.42599   0.60186   0.76351   1.000
    O94     O    0.48452   0.64681   0.75598   1.000
    O95     O    0.48386   0.56883   0.73545   1.000
    O96     O    0.41771   0.54754   0.74450   1.000
    C97     C    0.15458   0.50518   0.63973   1.000
    O98     O    0.21645   0.48448   0.67397   1.000
    O99     O    0.15759   0.50576   0.69702   1.000
    O100    O    0.21243   0.49082   0.59651   1.000
    O101    O    0.10024   0.50900   0.59590   1.000
    C102    C    0.84547   0.49482   0.36024   1.000
    O103    O    0.84246   0.49424   0.30295   1.000
    O104    O    0.78359   0.51551   0.32600   1.000
    O105    O    0.89979   0.49100   0.40408   1.000
    O106    O    0.78761   0.50917   0.40343   1.000
    C107    C    0.82471   0.46056   0.61193   1.000
    O108    O    0.81944   0.45454   0.66573   1.000
    O109    O    0.76059   0.47585   0.64269   1.000
    O110    O    0.88589   0.46838   0.57662   1.000
    O111    O    0.77419   0.48711   0.56651   1.000
    C112    C    0.91627   0.69202   0.17471   1.000
    O113    O    0.98060   0.71416   0.20371   1.000
    O114    O    0.91980   0.61534   0.17719   1.000
    C115    C    0.17534   0.53943   0.38801   1.000
    O116    O    0.22585   0.51288   0.43342   1.000
    O117    O    0.18061   0.54546   0.33420   1.000
    O118    O    0.23946   0.52414   0.35725   1.000
    O119    O    0.11414   0.53161   0.42334   1.000
    C120    C    0.58370   0.30805   0.67468   1.000
    O121    O    0.51934   0.28590   0.70365   1.000
    O122    O    0.58023   0.38473   0.67718   1.000
    C123    C    0.92593   0.60180   0.73648   1.000
    O124    O    0.91767   0.54746   0.75548   1.000
    O125    O    0.98380   0.56877   0.76453   1.000
    O126    O    0.98443   0.64676   0.74404   1.000
    C127    C    0.57405   0.39813   0.23646   1.000
    O128    O    0.51552   0.35318   0.24399   1.000
    O129    O    0.58233   0.45245   0.25547   1.000
    O130    O    0.51618   0.43116   0.26452   1.000
    C131    C    0.32465   0.46065   0.88805   1.000
    O132    O    0.31939   0.45463   0.83424   1.000
    O133    O    0.26052   0.47590   0.85729   1.000
    O134    O    0.38586   0.46845   0.92336   1.000
    O135    O    0.27415   0.48725   0.93343   1.000
    C136    C    0.42599   0.89813   0.26352   1.000
    O137    O    0.41771   0.95245   0.24451   1.000
    O138    O    0.48387   0.93116   0.23546   1.000
    O139    O    0.48452   0.85318   0.25599   1.000
    C140    C    0.58370   0.19195   0.17468   1.000
    O141    O    0.51934   0.21410   0.20365   1.000
    O142    O    0.58022   0.11526   0.17719   1.000
    C143    C    0.65464   0.99486   0.36026   1.000
    O144    O    0.65766   0.99426   0.30297   1.000
    O145    O    0.71650   0.01558   0.32602   1.000
    O146    O    0.60030   0.99103   0.40407   1.000
    O147    O    0.71248   0.00906   0.40348   1.000
    C148    C    0.91628   0.80799   0.67470   1.000
    O149    O    0.91981   0.88467   0.67719   1.000
    O150    O    0.98061   0.78584   0.70370   1.000
    C151    C    0.84547   0.00518   0.86023   1.000
    O152    O    0.78762   0.99082   0.90345   1.000
    O153    O    0.89979   0.00900   0.90407   1.000
    O154    O    0.84246   0.00576   0.80295   1.000
    O155    O    0.78360   0.98448   0.82599   1.000
    C156    C    0.34540   0.00514   0.63971   1.000
    O157    O    0.28756   0.99072   0.59649   1.000
    O158    O    0.39974   0.00897   0.59586   1.000
    O159    O    0.34239   0.00574   0.69700   1.000
    O160    O    0.28354   0.98442   0.67395   1.000
    C161    C    0.32465   0.03936   0.38805   1.000
    O162    O    0.27415   0.01277   0.43343   1.000
    O163    O    0.38585   0.03155   0.42333   1.000
    O164    O    0.31938   0.04538   0.33424   1.000
    O165    O    0.26052   0.02410   0.35729   1.000
    C166    C    0.67539   0.96064   0.61192   1.000
    O167    O    0.72589   0.98635   0.56654   1.000
    O168    O    0.73952   0.97590   0.64268   1.000
    O169    O    0.68066   0.95462   0.66573   1.000
    O170    O    0.61419   0.96845   0.57660   1.000
    C171    C    0.15457   0.99481   0.13974   1.000
    O172    O    0.10024   0.99100   0.09591   1.000
    O173    O    0.15758   0.99424   0.19703   1.000
    O174    O    0.21644   0.01552   0.17398   1.000
    O175    O    0.21243   0.00895   0.09652   1.000
    C176    C    0.08375   0.19202   0.32527   1.000
    O177    O    0.01942   0.21417   0.29627   1.000
    O178    O    0.08023   0.11533   0.32279   1.000
    C179    C    0.57405   0.10186   0.73645   1.000
    O180    O    0.58234   0.04754   0.75546   1.000
    O181    O    0.51618   0.06883   0.76451   1.000
    O182    O    0.51552   0.14682   0.74398   1.000
    C183    C    0.92592   0.89821   0.23649   1.000
    O184    O    0.91766   0.95255   0.25549   1.000
    O185    O    0.98380   0.93124   0.26454   1.000
    O186    O    0.98441   0.85325   0.24406   1.000
    C187    C    0.17534   0.96056   0.88803   1.000
    O188    O    0.22585   0.98625   0.93343   1.000
    O189    O    0.11414   0.96838   0.92334   1.000
    O190    O    0.23946   0.97585   0.85727   1.000
    O191    O    0.18062   0.95454   0.83423   1.000
    C192    C    0.07412   0.10179   0.76348   1.000
    O193    O    0.01563   0.14676   0.75592   1.000
    O194    O    0.01624   0.06877   0.73544   1.000
    O195    O    0.08238   0.04746   0.74448   1.000
    C196    C    0.82470   0.03943   0.11193   1.000
    O197    O    0.77419   0.01288   0.06654   1.000
    O198    O    0.76058   0.02414   0.14270   1.000
    O199    O    0.81942   0.04546   0.16574   1.000
    O200    O    0.88589   0.03161   0.07663   1.000
    C201    C    0.41635   0.80804   0.82529   1.000
    O202    O    0.41982   0.88473   0.82278   1.000
    O203    O    0.48071   0.78589   0.79632   1.000
loop_
    _geom_bond_atom_site_label_1
    _geom_bond_atom_site_label_2
    _geom_bond_distance
    _geom_bond_site_symmetry_2
    _ccdc_geom_bond_type
    N20    O21       1.13005      .   S
    Zr9    O21       2.27817      .   S
    N20    O22       1.12666      .   S
    Zr10   O22       2.27446      .   S
    N23    O24       1.13073  1_556   S
    Zr11   O24       2.27876      .   S
    N23    O25       1.12590      .   S
    Zr8    O25       2.27378      .   S
    N26    O27       1.13692      .   S
    Zr13   O27       2.29063      .   S
    N26    O28       1.12444      .   S
    Zr2    O28       2.26123      .   S
    N29    O30       1.13060  1_554   S
    Zr13   O30       2.27864      .   S
    N29    O31       1.12600      .   S
    Zr14   O31       2.27386      .   S
    N32    O33       1.12449      .   S
    Zr4    O33       2.26140      .   S
    N32    O34       1.13708      .   S
    Zr11   O34       2.29099      .   S
    N35    O36       1.12442      .   S
    Zr6    O36       2.26119      .   S
    N35    O37       1.13694      .   S
    Zr9    O37       2.29066      .   S
    N38    O39       1.12586      .   S
    Zr12   O39       2.27374      .   S
    N38    O40       1.13059      .   S
    Zr15   O40       2.27862      .   S
    N41    O42       1.12552      .   S
    Zr6    O42       2.27340      .   S
    N41    O43       1.12990  1_556   S
    Zr5    O43       2.28026      .   S
    N44    O45       1.12443      .   S
    Zr10   O45       2.26125      .   S
    N44    O46       1.13692      .   S
    Zr5    O46       2.29064      .   S
    N47    O48       1.12664      .   S
    Zr0    O48       2.27448      .   S
    N47    O49       1.13018  1_554   S
    Zr3    O49       2.27830      .   S
    N50    O51       1.12442      .   S
    Zr14   O51       2.26122      .   S
    N50    O52       1.13691      .   S
    Zr1    O52       2.29075      .   S
    N53    O54       1.13058      .   S
    Zr1    O54       2.27858      .   S
    N53    O55       1.12585      .   S
    Zr2    O55       2.27372      .   S
    N56    O57       1.12451      .   S
    Zr8    O57       2.26144      .   S
    N56    O58       1.13708      .   S
    Zr7    O58       2.29097      .   S
    N59    O60       1.12489      .   S
    Zr4    O60       2.27278      .   S
    N59    O61       1.13155      .   S
    Zr7    O61       2.27957      .   S
    N62    O63       1.13710      .   S
    Zr15   O63       2.29101      .   S
    N62    O64       1.12453      .   S
    Zr0    O64       2.26137      .   S
    N65    O66       1.13707      .   S
    Zr3    O66       2.29098      .   S
    N65    O67       1.12449      .   S
    Zr12   O67       2.26142      .   S
    C68    O69       1.10621      .   S
    N35    O69       2.19748  1_655   S
    C68    O70       1.21803      .   S
    Zr13   O70       2.29066      .   S
    C71    O72       1.21803      .   S
    Zr15   O72       2.29086      .   S
    C71    O73       1.10633      .   S
    N32    O73       2.19769      .   S
    C74    O75       1.12310      .   S
    N41    O75       2.22133      .   S
    C74    O76       0.94111      .   S
    Zr7    O76       2.00991      .   S
    C74    O77       1.10977      .   S
    Zr6    O77       2.31674      .   S
    C74    O78       1.06993      .   S
    Zr19   O78       2.14964  1_554   S
    C79    O80       1.06849      .   S
    Zr19   O80       2.14059      .   S
    C79    O81       0.89144      .   S
    Zr4    O81       1.94228      .   S
    C79    O82       1.08701      .   S
    Zr5    O82       2.26014      .   S
    C79    O83       1.12737      .   S
    N41    O83       2.22719  1_556   S
    C84    O85       1.12324      .   S
    N29    O85       2.22180      .   S
    C84    O86       0.94113      .   S
    Zr15   O86       2.01002      .   S
    C84    O87       1.10974      .   S
    Zr14   O87       2.31670      .   S
    C84    O88       1.06985      .   S
    Zr19   O88       2.14936      .   S
    C89    O90       1.11637      .   S
    N44    O90       2.21567  1_655   S
    C89    O91       0.92429      .   S
    Zr14   O91       1.97203      .   S
    C89    O92       1.09242      .   S
    Zr5    O92       2.28607  1_655   S
    C93    O94       1.11662      .   S
    N56    O94       2.21607      .   S
    C93    O95       1.09247      .   S
    Zr7    O95       2.28639      .   S
    C93    O96       0.92419      .   S
    Zr12   O96       1.97192      .   S
    C97    O98       1.10982      .   S
    Zr12   O98       2.31682      .   S
    C97    O99       0.94114      .   S
    Zr13   O99       2.00999      .   S
    C97    O100      1.12318      .   S
    N38    O100      2.22162      .   S
    C97    O101      1.06980      .   S
    Zr18   O101      2.14921      .   S
    C102   O103      0.94114      .   S
    Zr5    O103      2.00997      .   S
    C102   O104      1.10981      .   S
    Zr4    O104      2.31682      .   S
    C102   O105      1.06975      .   S
    Zr18   O105      2.14905  1_455   S
    C102   O106      1.12290      .   S
    N59    O106      2.22082      .   S
    C107   O108      0.89142      .   S
    Zr6    O108      1.94150      .   S
    C107   O109      1.08705      .   S
    Zr7    O109      2.26012      .   S
    C107   O110      1.06840      .   S
    Zr18   O110      2.14054  1_455   S
    C107   O111      1.12769      .   S
    N59    O111      2.22775      .   S
    C112   O113      1.10619      .   S
    N50    O113      2.19745  1_455   S
    C112   O114      1.21801      .   S
    Zr5    O114      2.29061      .   S
    C115   O116      1.12755      .   S
    N38    O116      2.22711      .   S
    C115   O117      0.89151      .   S
    Zr14   O117      1.94098      .   S
    C115   O118      1.08705      .   S
    Zr15   O118      2.25986      .   S
    C115   O119      1.06868      .   S
    Zr18   O119      2.14101      .   S
    C120   O121      1.10634      .   S
    N65    O121      2.19768      .   S
    C120   O122      1.21801      .   S
    Zr7    O122      2.29081      .   S
    C123   O124      0.92427      .   S
    Zr6    O124      1.97198      .   S
    C123   O125      1.09241      .   S
    Zr13   O125      2.28605  1_455   S
    C123   O126      1.11637      .   S
    N26    O126      2.21567  1_455   S
    C127   O128      1.11661      .   S
    N62    O128      2.21606      .   S
    C127   O129      0.92420      .   S
    Zr4    O129      1.97192      .   S
    C127   O130      1.09248      .   S
    Zr15   O130      2.28641      .   S
    C131   O132      0.89141      .   S
    Zr12   O132      1.94157      .   S
    C131   O133      1.08700      .   S
    Zr13   O133      2.25989      .   S
    C131   O134      1.06864      .   S
    Zr19   O134      2.14108  1_554   S
    C131   O135      1.12743      .   S
    N29    O135      2.22696  1_554   S
    C136   O137      0.92421      .   S
    Zr0    O137      1.97199  1_545   S
    C136   O138      1.09248      .   S
    Zr11   O138      2.28642      .   S
    C136   O139      1.11661      .   S
    N32    O139      2.21606      .   S
    C140   O141      1.10631      .   S
    N62    O141      2.19763      .   S
    C140   O142      1.21805      .   S
    Zr11   O142      2.29095  1_565   S
    C143   O144      0.94114      .   S
    Zr11   O144      2.00995      .   S
    C143   O145      1.10974  1_565   S
    Zr10   O145      2.31669      .   S
    C143   O146      1.06963      .   S
    Zr17   O146      2.14863  1_545   S
    C143   O147      1.12248  1_565   S
    N20    O147      2.21937      .   S
    C148   O149      1.21806      .   S
    Zr9    O149      2.29077  1_545   S
    C148   O150      1.10619      .   S
    N26    O150      2.19747  1_455   S
    C151   O152      1.12321  1_545   S
    N23    O152      2.22168      .   S
    C151   O153      1.06978      .   S
    Zr16   O153      2.14918  1_454   S
    C151   O154      0.94110      .   S
    Zr9    O154      2.00986      .   S
    C151   O155      1.10981  1_545   S
    Zr8    O155      2.31682      .   S
    C156   O157      1.12319  1_545   S
    N53    O157      2.22161      .   S
    C156   O158      1.07008      .   S
    Zr17   O158      2.15009      .   S
    C156   O159      0.94114      .   S
    Zr3    O159      2.00994      .   S
    C156   O160      1.10975  1_545   S
    Zr2    O160      2.31670      .   S
    C161   O162      1.12742      .   S
    N53    O162      2.22691  1_565   S
    C161   O163      1.06842      .   S
    Zr17   O163      2.14036      .   S
    C161   O164      0.89140      .   S
    Zr0    O164      1.94154      .   S
    C161   O165      1.08700      .   S
    Zr1    O165      2.25992  1_565   S
    C166   O167      1.12224      .   S
    N20    O167      2.22692  1_545   S
    C166   O168      1.08701      .   S
    Zr9    O168      2.25995  1_545   S
    C166   O169      0.89141      .   S
    Zr8    O169      1.94155      .   S
    C166   O170      1.06882      .   S
    Zr17   O170      2.14167  1_545   S
    C171   O172      1.06980      .   S
    Zr16   O172      2.14922  1_545   S
    C171   O173      0.94114      .   S
    Zr1    O173      2.00997      .   S
    C171   O174      1.10982  1_565   S
    Zr0    O174      2.31685      .   S
    C171   O175      1.12253  1_565   S
    N47    O175      2.21950      .   S
    C176   O177      1.10619      .   S
    N44    O177      2.19748  1_655   S
    C176   O178      1.21804      .   S
    Zr1    O178      2.29071  1_565   S
    C179   O180      0.92422      .   S
    Zr8    O180      1.97203  1_565   S
    C179   O181      1.09248      .   S
    Zr3    O181      2.28641      .   S
    C179   O182      1.11661      .   S
    N65    O182      2.21605      .   S
    C183   O184      0.92430      .   S
    Zr10   O184      1.97208  1_545   S
    C183   O185      1.09244      .   S
    Zr1    O185      2.28610  1_455   S
    C183   O186      1.11636      .   S
    N50    O186      2.21564  1_455   S
    C187   O188      1.12242      .   S
    N47    O188      2.22696  1_544   S
    C187   O189      1.06859      .   S
    Zr16   O189      2.14121  1_544   S
    C187   O190      1.08700      .   S
    Zr3    O190      2.26004  1_545   S
    C187   O191      0.89138      .   S
    Zr2    O191      1.94146      .   S
    C192   O193      1.11636      .   S
    N35    O193      2.21566  1_655   S
    C192   O194      1.09242      .   S
    Zr9    O194      2.28608  1_655   S
    C192   O195      0.92427      .   S
    Zr2    O195      1.97205  1_565   S
    C196   O197      1.12740      .   S
    N23    O197      2.22692  1_566   S
    C196   O198      1.08703      .   S
    Zr11   O198      2.26004  1_565   S
    C196   O199      0.89147      .   S
    Zr10   O199      1.94155      .   S
    C196   O200      1.06842      .   S
    Zr16   O200      2.14052  1_455   S
    C201   O202      1.21803      .   S
    Zr3    O202      2.29090  1_545   S
    C201   O203      1.10633      .   S
    N56    O203      2.19769      .   S
