# CIF file generated by openbabel 2.4.90, see http://openbabel.sf.net
data_I
_chemical_name_common ''
_cell_length_a 9.2075
_cell_length_b 11.1285
_cell_length_c 12.191
_cell_angle_alpha 85.613
_cell_angle_beta 89.858
_cell_angle_gamma 89.891
_space_group_name_H-M_alt 'P 1'
_space_group_name_Hall 'P 1'
loop_
    _symmetry_equiv_pos_as_xyz
    x,y,z
loop_
    _atom_site_label
    _atom_site_type_symbol
    _atom_site_fract_x
    _atom_site_fract_y
    _atom_site_fract_z
    _atom_site_occupancy
    Zn0     Zn   0.51431   0.23978   0.92121   1.000
    Zn1     Zn   0.68708   0.38011   0.27700   1.000
    Zn2     Zn   0.01857   0.26046   0.57414   1.000
    Zn3     Zn   0.81334   0.88001   0.77735   1.000
    Zn4     Zn   0.48667   0.76065   0.07451   1.000
    Zn5     Zn   0.31324   0.62049   0.71857   1.000
    Zn6     Zn   0.98120   0.73954   0.42187   1.000
    H7      H    0.33768   0.93953   0.91060   1.000
    H8      H    0.38679   0.06759   0.68122   1.000
    H9      H    0.08528   0.99101   0.89823   1.000
    H10     H    0.14560   0.23355   0.84822   1.000
    H11     H    0.84027   0.55909   0.58789   1.000
    H12     H    0.89005   0.43065   0.81609   1.000
    H13     H    0.58877   0.50764   0.59950   1.000
    H14     H    0.64914   0.26627   0.64996   1.000
    H15     H    0.66280   0.05847   0.08933   1.000
    H16     H    0.61141   0.93051   0.31704   1.000
    H17     H    0.91542   0.00744   0.10233   1.000
    H18     H    0.85514   0.76746   0.15091   1.000
    H19     H    0.16010   0.44233   0.40809   1.000
    H20     H    0.11059   0.57010   0.17957   1.000
    H21     H    0.41167   0.49391   0.39638   1.000
    H22     H    0.35072   0.73517   0.34504   1.000
    C23     C    0.24531   0.15395   0.99555   1.000
    C24     C    0.30094   0.96513   0.82632   1.000
    C25     C    0.56050   0.03752   0.79984   1.000
    C26     C    0.40138   0.06198   0.77085   1.000
    C27     C    0.15603   0.03638   0.83474   1.000
    C28     C    0.21631   0.15603   0.87118   1.000
    C29     C    0.29287   0.85340   0.76092   1.000
    C30     C    0.07024   0.05907   0.72689   1.000
    C31     C    0.74787   0.34570   0.50213   1.000
    Zn32    Zn   0.18722   0.11975   0.22211   1.000
    C33     C    0.80302   0.53405   0.67226   1.000
    C34     C    0.06320   0.46179   0.69655   1.000
    C35     C    0.90445   0.43682   0.72637   1.000
    C36     C    0.65914   0.46348   0.66286   1.000
    C37     C    0.71972   0.34357   0.62647   1.000
    C38     C    0.79482   0.64633   0.73695   1.000
    C39     C    0.57116   0.44060   0.76979   1.000
    C40     C    0.75721   0.84618   0.00283   1.000
    C41     C    0.69987   0.03459   0.17385   1.000
    C42     C    0.43897   0.96192   0.19753   1.000
    C43     C    0.59772   0.93731   0.22732   1.000
    C44     C    0.84336   0.96448   0.16441   1.000
    C45     C    0.78417   0.84464   0.12732   1.000
    C46     C    0.70773   0.14805   0.23671   1.000
    C47     C    0.92859   0.94141   0.27242   1.000
    C48     C    0.25272   0.65629   0.49343   1.000
    C49     C    0.19744   0.46708   0.32369   1.000
    C50     C    0.93719   0.53855   0.29886   1.000
    C51     C    0.09592   0.56395   0.26927   1.000
    C52     C    0.34122   0.53781   0.33294   1.000
    C53     C    0.28043   0.65784   0.36901   1.000
    C54     C    0.20550   0.35456   0.25940   1.000
    C55     C    0.42907   0.56014   0.22586   1.000
    O56     O    0.35187   0.17582   0.81091   1.000
    O57     O    0.12639   0.13884   0.65694   1.000
    O58     O    0.36907   0.18704   0.02907   1.000
    O59     O    0.14258   0.12012   0.05956   1.000
    O60     O    0.33219   0.75288   0.81514   1.000
    O61     O    0.62189   0.09306   0.87485   1.000
    O62     O    0.95033   0.01069   0.71294   1.000
    O63     O    0.25141   0.86420   0.66427   1.000
    O64     O    0.62034   0.95948   0.74761   1.000
    O65     O    0.85558   0.32351   0.68569   1.000
    O66     O    0.62567   0.36006   0.83976   1.000
    O67     O    0.87176   0.31348   0.46747   1.000
    O68     O    0.64380   0.37910   0.43946   1.000
    O69     O    0.83095   0.74685   0.68124   1.000
    O70     O    0.12504   0.40682   0.62094   1.000
    O71     O    0.45012   0.48964   0.78298   1.000
    O72     O    0.75650   0.63585   0.83445   1.000
    O73     O    0.12100   0.54141   0.75062   1.000
    O74     O    0.64783   0.82425   0.18618   1.000
    O75     O    0.87145   0.86171   0.34200   1.000
    O76     O    0.63400   0.81307   0.96809   1.000
    O77     O    0.86108   0.87936   0.93963   1.000
    O78     O    0.66816   0.24733   0.18065   1.000
    O79     O    0.37878   0.90736   0.12133   1.000
    O80     O    0.05047   0.98966   0.28730   1.000
    O81     O    0.74901   0.14000   0.33347   1.000
    O82     O    0.38077   0.04189   0.25448   1.000
    O83     O    0.14427   0.67732   0.31002   1.000
    O84     O    0.37462   0.64059   0.15577   1.000
    O85     O    0.12853   0.68743   0.52831   1.000
    O86     O    0.35737   0.62440   0.55606   1.000
    O87     O    0.16896   0.25448   0.31571   1.000
    O88     O    0.87507   0.59335   0.37444   1.000
    O89     O    0.54973   0.51057   0.21250   1.000
    O90     O    0.24379   0.36434   0.16192   1.000
    O91     O    0.87971   0.45885   0.24471   1.000
loop_
    _geom_bond_atom_site_label_1
    _geom_bond_atom_site_label_2
    _geom_bond_distance
    _geom_bond_site_symmetry_2
    _ccdc_geom_bond_type
    C40    C45       1.53715      .   S
    C40    O77       1.26441  1_554   S
    C40    O76       1.27670  1_554   S
    O58    Zn0       1.93341  1_554   S
    O58    C23       1.27591  1_554   S
    O59    Zn32      2.02456      .   S
    O59    C23       1.26421  1_554   S
    Zn4    O79       2.02775      .   S
    Zn4    O84       1.90494      .   S
    Zn4    O76       1.93441  1_554   S
    H15    C41       1.09927      .   S
    H17    C44       1.08856  1_545   S
    O79    C42       1.27626      .   S
    C45    H18       1.09927      .   S
    C45    C44       1.54155      .   S
    C45    O74       1.45400      .   S
    O84    C55       1.29086      .   S
    O90    C54       1.23567      .   S
    C44    C41       1.54164  1_565   S
    C44    C47       1.53888      .   S
    C41    C43       1.54093  1_545   S
    C41    C46       1.52815      .   S
    H20    C51       1.09841      .   S
    O78    C46       1.30566      .   S
    O78    Zn1       1.96489      .   S
    O74    C43       1.46312      .   S
    C42    C43       1.52620      .   S
    C42    O82       1.28532  1_565   S
    O89    C55       1.25525      .   S
    O89    Zn1       2.03685      .   S
    Zn32   O82       2.00688      .   S
    Zn32   O80       2.03443  1_545   S
    Zn32   O87       1.95920      .   S
    C55    C52       1.53816      .   S
    C43    H16       1.09817      .   S
    C46    O81       1.23694      .   S
    O91    Zn1       2.00458      .   S
    O91    C50       1.26316      .   S
    C54    O87       1.30694      .   S
    C54    C49       1.52881      .   S
    C51    C50       1.52626  1_455   S
    C51    O83       1.46148      .   S
    C51    C49       1.53808      .   S
    C47    O80       1.26442  1_655   S
    C47    O75       1.29133      .   S
    Zn1    O68       2.01844      .   S
    C50    O88       1.27675      .   S
    O83    C53       1.45451      .   S
    C49    C52       1.55013      .   S
    C49    H19       1.09907      .   S
    C52    C53       1.54171      .   S
    C52    H21       1.09596      .   S
    O75    Zn6       1.90124      .   S
    H22    C53       1.09896      .   S
    C53    C48       1.53628      .   S
    O88    Zn6       2.02206      .   S
    Zn6    O85       1.93670  1_655   S
    O68    C31       1.26450      .   S
    O67    C31       1.27577      .   S
    O67    Zn2       1.93767  1_655   S
    C48    O85       1.27550      .   S
    C48    O86       1.26424      .   S
    C31    C37       1.53558      .   S
    O86    Zn5       2.01857      .   S
    Zn2    O70       2.02256      .   S
    Zn2    O57       1.90453      .   S
    H11    C33       1.09910      .   S
    H13    C36       1.09598      .   S
    O70    C34       1.27681      .   S
    C37    H14       1.09905      .   S
    C37    C36       1.54115      .   S
    C37    O65       1.45417      .   S
    O57    C30       1.29082      .   S
    C36    C33       1.55030      .   S
    C36    C39       1.53792      .   S
    O63    C29       1.23644      .   S
    C33    C35       1.53887      .   S
    C33    C38       1.52938      .   S
    H8     C26       1.09826      .   S
    O69    C38       1.30662      .   S
    O69    Zn3       1.96431      .   S
    O65    C35       1.46190      .   S
    C34    C35       1.52627  1_455   S
    C34    O73       1.26317      .   S
    O62    C30       1.24701  1_655   S
    O62    Zn3       2.03714  1_545   S
    Zn5    O73       2.00253      .   S
    Zn5    O71       2.03675      .   S
    Zn5    O60       1.96328      .   S
    C35    H12       1.09840      .   S
    C30    C27       1.53949      .   S
    C38    O72       1.23605      .   S
    O64    Zn3       2.00483      .   S
    O64    C25       1.24272  1_565   S
    C29    O60       1.30611      .   S
    C29    C24       1.52957      .   S
    C39    O71       1.25534      .   S
    C39    O66       1.29078      .   S
    C26    C25       1.52700      .   S
    C26    O56       1.46382      .   S
    C26    C24       1.53736  1_545   S
    Zn3    O77       2.02726      .   S
    C25    O61       1.27601      .   S
    O56    C28       1.45532      .   S
    C24    C27       1.55794  1_565   S
    C24    H7        1.09901      .   S
    C27    C28       1.54047      .   S
    C27    H9        1.10337  1_545   S
    O66    Zn0       1.90415      .   S
    H10    C28       1.09917      .   S
    C28    C23       1.53861      .   S
    O61    Zn0       2.02454      .   S
    O56    Zn0       2.17078      .   S
    O65    Zn2       2.17392  1_655   S
    O74    Zn4       2.17199      .   S
    O83    Zn6       2.17334  1_455   S
