# CIF file generated by openbabel 2.4.90, see http://openbabel.sf.net
data_I
_chemical_name_common ''
_cell_length_a 9.2075
_cell_length_b 11.1285
_cell_length_c 12.191
_cell_angle_alpha 85.613
_cell_angle_beta 89.858
_cell_angle_gamma 89.891
_space_group_name_H-M_alt 'P 1'
_space_group_name_Hall 'P 1'
loop_
    _symmetry_equiv_pos_as_xyz
    x,y,z
loop_
    _atom_site_label
    _atom_site_type_symbol
    _atom_site_fract_x
    _atom_site_fract_y
    _atom_site_fract_z
    _atom_site_occupancy
    Zr0     Zr   0.18722   0.11975   0.22211   1.000
    Zr1     Zr   0.51431   0.23978   0.92121   1.000
    Zr2     Zr   0.68708   0.38011   0.27700   1.000
    Zr3     Zr   0.01857   0.26046   0.57414   1.000
    Zr4     Zr   0.81334   0.88001   0.77735   1.000
    Zr5     Zr   0.48667   0.76065   0.07451   1.000
    Zr6     Zr   0.31324   0.62049   0.71857   1.000
    Zr7     Zr   0.98120   0.73954   0.42187   1.000
    N8      N    0.71638   0.95938   0.17501   1.000
    O9      O    0.82135   0.88000   0.27847   1.000
    O10     O    0.91761   0.00704   0.21486   1.000
    O11     O    0.50019   0.02010   0.20665   1.000
    O12     O    0.77679   0.91953   0.01675   1.000
    O13     O    0.69700   0.13655   0.20192   1.000
    N14     N    0.28405   0.04082   0.82361   1.000
    O15     O    0.17826   0.12024   0.71957   1.000
    O16     O    0.50044   0.98028   0.79305   1.000
    O17     O    0.22447   0.08038   0.98222   1.000
    O18     O    0.08294   0.99309   0.78438   1.000
    O19     O    0.30338   0.86375   0.79523   1.000
    N20     N    0.21403   0.54234   0.32195   1.000
    O21     O    0.41622   0.49384   0.28335   1.000
    O22     O    0.19606   0.36473   0.29543   1.000
    O23     O    0.32234   0.62148   0.21855   1.000
    O24     O    0.27467   0.58239   0.47963   1.000
    O25     O    0.99871   0.48091   0.29140   1.000
    N26     N    0.78629   0.45870   0.67378   1.000
    O27     O    0.67814   0.37931   0.77713   1.000
    O28     O    0.72586   0.41915   0.51600   1.000
    O29     O    0.58398   0.50688   0.71228   1.000
    O30     O    0.80422   0.63606   0.70154   1.000
    O31     O    0.00170   0.51982   0.70419   1.000
    O32     O    0.88055   0.37930   0.62052   1.000
    O33     O    0.37652   0.11984   0.86247   1.000
    O34     O    0.10375   0.61552   0.36564   1.000
    O35     O    0.60732   0.88561   0.13094   1.000
loop_
    _geom_bond_atom_site_label_1
    _geom_bond_atom_site_label_2
    _geom_bond_distance
    _geom_bond_site_symmetry_2
    _ccdc_geom_bond_type
    N8     O9        1.77139      .   S
    Zr7    O9        2.69290      .   S
    N8     O10       1.99951  1_565   S
    Zr0    O10       2.78807  1_455   S
    N8     O11       2.14446  1_565   S
    Zr0    O11       3.09614      .   S
    N8     O12       2.08640      .   S
    Zr4    O12       3.00260  1_556   S
    N8     O13       2.03078  1_565   S
    Zr2    O13       2.92759      .   S
    N14    O15       1.78035      .   S
    Zr3    O15       2.70585      .   S
    N14    O16       2.14296  1_545   S
    Zr4    O16       3.09830      .   S
    N14    O17       2.08750      .   S
    Zr0    O17       3.00875  1_554   S
    N14    O18       1.99670  1_545   S
    Zr4    O18       2.78972  1_655   S
    N14    O19       2.03395  1_545   S
    Zr6    O19       2.93194      .   S
    N20    O21       2.00229      .   S
    Zr2    O21       2.79819      .   S
    N20    O22       2.03418      .   S
    Zr0    O22       2.93462      .   S
    N20    O23       1.78512      .   S
    Zr5    O23       2.71135      .   S
    N20    O24       2.08398      .   S
    Zr6    O24       2.99754      .   S
    N20    O25       2.14106  1_455   S
    Zr2    O25       3.09308      .   S
    N26    O27       1.78505      .   S
    Zr1    O27       2.71109      .   S
    N26    O28       2.08295      .   S
    Zr2    O28       3.00091      .   S
    N26    O29       2.00194      .   S
    Zr6    O29       2.79653      .   S
    N26    O30       2.03503      .   S
    Zr4    O30       2.93529      .   S
    N26    O31       2.14044  1_655   S
    Zr6    O31       3.09169      .   S
    N26    O32       1.42747      .   S
    Zr3    O32       1.94635  1_455   S
    N14    O33       1.33834      .   S
    Zr1    O33       2.01524      .   S
    N20    O34       1.42779      .   S
    Zr7    O34       1.94498  1_655   S
    N8     O35       1.42981      .   S
    Zr5    O35       1.94858      .   S
