# CIF file generated by openbabel 2.4.90, see http://openbabel.sf.net
data_I
_chemical_name_common ''
_cell_length_a 18.942
_cell_length_b 18.96
_cell_length_c 18.965
_cell_angle_alpha 59.983
_cell_angle_beta 60.023
_cell_angle_gamma 60.017
_space_group_name_H-M_alt 'P 1'
_space_group_name_Hall 'P 1'
loop_
    _symmetry_equiv_pos_as_xyz
    x,y,z
loop_
    _atom_site_label
    _atom_site_type_symbol
    _atom_site_fract_x
    _atom_site_fract_y
    _atom_site_fract_z
    _atom_site_occupancy
    H0      H    0.76662   0.99349   0.47287   1.000
    H1      H    0.99380   0.76662   0.76688   1.000
    H2      H    0.47362   0.76671   0.76612   1.000
    H3      H    0.76692   0.47330   0.99330   1.000
    H4      H    0.76650   0.47314   0.76659   1.000
    H5      H    0.99390   0.76656   0.47289   1.000
    H6      H    0.47356   0.76621   0.99340   1.000
    H7      H    0.76698   0.99401   0.76649   1.000
    H8      H    0.76662   0.76714   0.99380   1.000
    H9      H    0.99375   0.47376   0.76603   1.000
    H10     H    0.47392   0.99345   0.76648   1.000
    H11     H    0.76682   0.76646   0.47259   1.000
    H12     H    0.00599   0.23368   0.52707   1.000
    H13     H    0.23335   0.00606   0.23292   1.000
    H14     H    0.23328   0.52680   0.23379   1.000
    H15     H    0.52643   0.23323   0.00648   1.000
    H16     H    0.52637   0.23370   0.23320   1.000
    H17     H    0.23301   0.00650   0.52702   1.000
    H18     H    0.23348   0.52671   0.00673   1.000
    H19     H    0.00616   0.23308   0.23342   1.000
    H20     H    0.23293   0.23340   0.00608   1.000
    H21     H    0.52602   0.00649   0.23391   1.000
    H22     H    0.00633   0.52625   0.23367   1.000
    H23     H    0.23333   0.23322   0.52739   1.000
    C24     C    0.66489   0.92912   0.47614   1.000
    C25     C    0.75748   0.88516   0.47159   1.000
    C26     C    0.92925   0.66504   0.92963   1.000
    C27     C    0.88539   0.75763   0.88556   1.000
    C28     C    0.47715   0.92949   0.66455   1.000
    C29     C    0.47269   0.88529   0.75704   1.000
    C30     C    0.92968   0.47705   0.92866   1.000
    C31     C    0.88555   0.47243   0.88483   1.000
    C32     C    0.66492   0.47647   0.92937   1.000
    C33     C    0.75745   0.47212   0.88515   1.000
    C34     C    0.92935   0.92917   0.47654   1.000
    C35     C    0.88543   0.88522   0.47180   1.000
    C36     C    0.47694   0.66467   0.92886   1.000
    C37     C    0.47253   0.75718   0.88491   1.000
    C38     C    0.92960   0.92921   0.66476   1.000
    C39     C    0.88559   0.88547   0.75740   1.000
    C40     C    0.66494   0.92990   0.92911   1.000
    C41     C    0.75754   0.88580   0.88531   1.000
    C42     C    0.92922   0.47687   0.66460   1.000
    C43     C    0.88529   0.47235   0.75708   1.000
    C44     C    0.47702   0.92883   0.92939   1.000
    C45     C    0.47263   0.88499   0.88515   1.000
    C46     C    0.92966   0.66476   0.47622   1.000
    C47     C    0.88556   0.75728   0.47162   1.000
    C48     C    0.07053   0.33517   0.52381   1.000
    C49     C    0.11449   0.24267   0.52836   1.000
    C50     C    0.33496   0.07070   0.07020   1.000
    C51     C    0.24238   0.11456   0.11420   1.000
    C52     C    0.07051   0.52306   0.33545   1.000
    C53     C    0.11461   0.52761   0.24297   1.000
    C54     C    0.52290   0.07050   0.07110   1.000
    C55     C    0.52732   0.11465   0.11504   1.000
    C56     C    0.52309   0.33524   0.07039   1.000
    C57     C    0.52746   0.24274   0.11467   1.000
    C58     C    0.07019   0.07120   0.52300   1.000
    C59     C    0.11430   0.11493   0.52810   1.000
    C60     C    0.33520   0.52344   0.07113   1.000
    C61     C    0.24266   0.52784   0.11510   1.000
    C62     C    0.07082   0.07036   0.33506   1.000
    C63     C    0.11459   0.11438   0.24245   1.000
    C64     C    0.07024   0.33514   0.07080   1.000
    C65     C    0.11432   0.24251   0.11458   1.000
    C66     C    0.52281   0.07103   0.33534   1.000
    C67     C    0.52728   0.11494   0.24285   1.000
    C68     C    0.07080   0.52309   0.07090   1.000
    C69     C    0.11474   0.52761   0.11499   1.000
    C70     C    0.33501   0.07050   0.52378   1.000
    C71     C    0.24242   0.11464   0.52834   1.000
    C72     C    0.80019   0.92769   0.47165   1.000
    C73     C    0.92800   0.80026   0.80032   1.000
    C74     C    0.47252   0.80008   0.79969   1.000
    C75     C    0.80034   0.47218   0.92749   1.000
    C76     C    0.80008   0.47209   0.79997   1.000
    C77     C    0.92804   0.80005   0.47166   1.000
    C78     C    0.47247   0.79980   0.92755   1.000
    C79     C    0.80041   0.92816   0.80008   1.000
    C80     C    0.80020   0.80056   0.92797   1.000
    C81     C    0.92792   0.47243   0.79965   1.000
    C82     C    0.47266   0.92764   0.79990   1.000
    C83     C    0.80031   0.79998   0.47140   1.000
    C84     C    0.07185   0.20008   0.52829   1.000
    C85     C    0.19976   0.07192   0.19952   1.000
    C86     C    0.19983   0.52787   0.20027   1.000
    C87     C    0.52751   0.19984   0.07234   1.000
    C88     C    0.52746   0.20013   0.19990   1.000
    C89     C    0.19954   0.07229   0.52826   1.000
    C90     C    0.19995   0.52783   0.07254   1.000
    C91     C    0.07195   0.19962   0.19980   1.000
    C92     C    0.19950   0.19981   0.07191   1.000
    C93     C    0.52730   0.07230   0.20020   1.000
    C94     C    0.07216   0.52757   0.20019   1.000
    C95     C    0.19974   0.19981   0.52848   1.000
    O96     O    0.62867   0.00603   0.47866   1.000
    O97     O    0.00617   0.62872   0.88651   1.000
    O98     O    0.47944   0.88651   0.62827   1.000
    O99     O    0.88657   0.47953   0.00555   1.000
    O100    O    0.62846   0.47892   0.88640   1.000
    O101    O    0.00629   0.88599   0.47918   1.000
    O102    O    0.47956   0.62835   0.00574   1.000
    O103    O    0.88647   0.00612   0.62836   1.000
    O104    O    0.62853   0.88677   0.00597   1.000
    O105    O    0.00616   0.47950   0.62834   1.000
    O106    O    0.47958   0.00576   0.88636   1.000
    O107    O    0.88655   0.62838   0.47877   1.000
    O108    O    0.99358   0.37142   0.52121   1.000
    O109    O    0.37129   0.99371   0.11326   1.000
    O110    O    0.11359   0.52067   0.37170   1.000
    O111    O    0.52045   0.11362   0.99419   1.000
    O112    O    0.52076   0.37161   0.11331   1.000
    O113    O    0.11331   0.99433   0.52065   1.000
    O114    O    0.37145   0.52085   0.99428   1.000
    O115    O    0.99394   0.11352   0.37141   1.000
    O116    O    0.11338   0.37161   0.99398   1.000
    O117    O    0.52015   0.99414   0.37171   1.000
    O118    O    0.99386   0.52048   0.11398   1.000
    O119    O    0.37151   0.11352   0.52119   1.000
    O120    O    0.37114   0.99362   0.52122   1.000
    O121    O    0.99335   0.37134   0.11400   1.000
    O122    O    0.52047   0.11415   0.37149   1.000
    O123    O    0.11401   0.52065   0.99400   1.000
    O124    O    0.37153   0.52098   0.11421   1.000
    O125    O    0.99330   0.11452   0.52057   1.000
    O126    O    0.52050   0.37140   0.99351   1.000
    O127    O    0.11409   0.99347   0.37132   1.000
    O128    O    0.37124   0.11399   0.99337   1.000
    O129    O    0.99361   0.52036   0.37165   1.000
    O130    O    0.52024   0.99362   0.11436   1.000
    O131    O    0.11373   0.37148   0.52123   1.000
    O132    O    0.00657   0.62857   0.47890   1.000
    O133    O    0.62874   0.00683   0.88587   1.000
    O134    O    0.88605   0.47931   0.62839   1.000
    O135    O    0.47953   0.88552   0.00630   1.000
    O136    O    0.47930   0.62845   0.88579   1.000
    O137    O    0.88612   0.00603   0.47920   1.000
    O138    O    0.62880   0.47904   0.00622   1.000
    O139    O    0.00644   0.88590   0.62852   1.000
    O140    O    0.88599   0.62872   0.00645   1.000
    O141    O    0.47984   0.00636   0.62831   1.000
    O142    O    0.00659   0.47972   0.88544   1.000
    O143    O    0.62849   0.88600   0.47876   1.000
loop_
    _geom_bond_atom_site_label_1
    _geom_bond_atom_site_label_2
    _geom_bond_distance
    _geom_bond_site_symmetry_2
    _ccdc_geom_bond_type
    O99    C30       1.27890  1_554   S
    O102   C36       1.27906  1_554   S
    O104   C40       1.27890  1_554   S
    H20    C92       1.08754      .   S
    O138   C32       1.27904  1_554   S
    O135   C44       1.27906  1_554   S
    O140   C26       1.27885  1_554   S
    H15    C87       1.08754      .   S
    H18    C90       1.08738      .   S
    C50    O109      1.27905  1_545   S
    C50    C51       1.49586      .   S
    C50    O128      1.27890  1_554   S
    C56    O112      1.27874      .   S
    C56    C57       1.49615      .   S
    C56    O126      1.27909  1_554   S
    C64    O121      1.27848  1_455   S
    C64    C65       1.49635      .   S
    C64    O116      1.27894  1_554   S
    C68    O118      1.27896  1_455   S
    C68    C69       1.49583      .   S
    C68    O123      1.27898  1_554   S
    C54    O130      1.27912  1_545   S
    C54    C55       1.49664      .   S
    C54    O111      1.27853  1_554   S
    C60    O124      1.27859      .   S
    C60    C61       1.49595      .   S
    C60    O114      1.27907  1_554   S
    C92    C51       1.39909      .   S
    C92    C65       1.39959      .   S
    C87    C57       1.39938      .   S
    C87    C55       1.39955      .   S
    C90    C69       1.39936      .   S
    C90    C61       1.39960      .   S
    C51    C85       1.40058      .   S
    C65    C91       1.39951      .   S
    C57    C88       1.39958      .   S
    C69    C94       1.39946      .   S
    C55    C93       1.39830      .   S
    C61    C86       1.39932      .   S
    C85    H13       1.08750      .   S
    C85    C63       1.39949      .   S
    C91    H19       1.08747      .   S
    C91    C63       1.39963      .   S
    C88    H16       1.08638      .   S
    C88    C67       1.39955      .   S
    C94    H22       1.08749      .   S
    C94    C53       1.39941      .   S
    C93    H21       1.08751      .   S
    C93    C67       1.40075      .   S
    C86    H14       1.08761      .   S
    C86    C53       1.39954      .   S
    C63    C62       1.49619      .   S
    C67    C66       1.49600      .   S
    C53    C52       1.49595      .   S
    C62    O127      1.27896  1_545   S
    C62    O115      1.27891  1_455   S
    C66    O122      1.27855      .   S
    C66    O117      1.27915  1_545   S
    C52    O129      1.27898  1_455   S
    C52    O110      1.27788      .   S
    C83    C25       1.39991      .   S
    C83    C47       1.39994      .   S
    C83    H11       1.08664      .   S
    C25    C72       1.39960      .   S
    C25    C24       1.49585      .   S
    C47    C77       1.39948      .   S
    C47    C46       1.49584      .   S
    C72    C35       1.39931      .   S
    C72    H0        1.08747      .   S
    C77    C35       1.39942      .   S
    C77    H5        1.08749      .   S
    C35    C34       1.49589      .   S
    C24    O96       1.27917  1_565   S
    C24    O143      1.27864      .   S
    C46    O107      1.27871      .   S
    C46    O132      1.27897  1_655   S
    C34    O101      1.27899  1_655   S
    C34    O137      1.27911  1_565   S
    O125   C58       1.27735  1_655   S
    O113   C58       1.27755  1_565   S
    O119   C70       1.27876      .   S
    O108   C48       1.27902  1_655   S
    O120   C70       1.27911  1_565   S
    O131   C48       1.27874      .   S
    C58    C59       1.49940      .   S
    C70    C71       1.49591      .   S
    C48    C49       1.49581      .   S
    H17    C89       1.08747      .   S
    H12    C84       1.08745      .   S
    H23    C95       1.08759      .   S
    C59    C89       1.39946      .   S
    C59    C84       1.39934      .   S
    C89    C71       1.39954      .   S
    C84    C49       1.39946      .   S
    C71    C95       1.39954      .   S
    C49    C95       1.39945      .   S
    O98    C28       1.27863      .   S
    O141   C28       1.27914  1_545   S
    O105   C42       1.27903  1_455   S
    O103   C38       1.27903  1_545   S
    O134   C42       1.27845      .   S
    O139   C38       1.27890  1_455   S
    C28    C29       1.49605      .   S
    C42    C43       1.49608      .   S
    C38    C39       1.49635      .   S
    C29    C74       1.39967      .   S
    C29    C82       1.39925      .   S
    C43    C81       1.39941      .   S
    C43    C76       1.39949      .   S
    C39    C79       1.39960      .   S
    C39    C73       1.39950      .   S
    H9     C81       1.08750      .   S
    H2     C74       1.08751      .   S
    H10    C82       1.08753      .   S
    H7     C79       1.08752      .   S
    H4     C76       1.08755      .   S
    H1     C73       1.08753      .   S
    C81    C31       1.39935      .   S
    C74    C37       1.39949      .   S
    C82    C45       1.39975      .   S
    C76    C33       1.39951      .   S
    C79    C41       1.39948      .   S
    C73    C27       1.39957      .   S
    C31    C75       1.39946      .   S
    C31    C30       1.49596      .   S
    C37    C78       1.39958      .   S
    C37    C36       1.49613      .   S
    C45    C78       1.39940      .   S
    C45    C44       1.49608      .   S
    C33    C75       1.39950      .   S
    C33    C32       1.49597      .   S
    C41    C80       1.39968      .   S
    C41    C40       1.49631      .   S
    O142   C30       1.27893  1_455   S
    C27    C80       1.39952      .   S
    C27    C26       1.49626      .   S
    O136   C36       1.27863      .   S
    O133   C40       1.27898  1_545   S
    O106   C44       1.27909  1_545   S
    O100   C32       1.27891      .   S
    O97    C26       1.27896  1_455   S
    C75    H3        1.08744      .   S
    C78    H6        1.08743      .   S
    C80    H8        1.08746      .   S
