# CIF file generated by openbabel 2.4.90, see http://openbabel.sf.net
data_I
_chemical_name_common ''
_cell_length_a 18.942
_cell_length_b 18.96
_cell_length_c 18.965
_cell_angle_alpha 59.983
_cell_angle_beta 60.023
_cell_angle_gamma 60.017
_space_group_name_H-M_alt 'P 1'
_space_group_name_Hall 'P 1'
loop_
    _symmetry_equiv_pos_as_xyz
    x,y,z
loop_
    _atom_site_label
    _atom_site_type_symbol
    _atom_site_fract_x
    _atom_site_fract_y
    _atom_site_fract_z
    _atom_site_occupancy
    N0      N    0.84170   0.84183   0.84161   1.000
    N1      N    0.15824   0.15829   0.15824   1.000
    N2      N    0.84168   0.47557   0.84128   1.000
    N3      N    0.47583   0.84141   0.84132   1.000
    N4      N    0.84172   0.84144   0.47502   1.000
    N5      N    0.15816   0.15853   0.52489   1.000
    N6      N    0.15842   0.52442   0.15875   1.000
    N7      N    0.52414   0.15852   0.15856   1.000
    Zr8     Zr   0.49994   0.99998   0.99995   1.000
    Zr9     Zr   0.99998   0.49996   0.50004   1.000
    Zr10    Zr   0.49995   0.00005   0.49995   1.000
    Zr11    Zr   0.99999   0.50011   0.99995   1.000
    Zr12    Zr   0.50006   0.49994   0.99992   1.000
    Zr13    Zr   0.99999   0.99998   0.49990   1.000
    O14     O    0.50854   0.04632   0.04639   1.000
    O15     O    0.50854   0.04643   0.39855   1.000
    O16     O    0.50865   0.39853   0.04627   1.000
    O17     O    0.04634   0.50875   0.04641   1.000
    O18     O    0.39858   0.50869   0.04642   1.000
    O19     O    0.04629   0.50864   0.39867   1.000
    O20     O    0.39843   0.04629   0.04619   1.000
    O21     O    0.49137   0.95354   0.95359   1.000
    O22     O    0.60147   0.95379   0.95361   1.000
    O23     O    0.95374   0.49141   0.95348   1.000
    O24     O    0.60154   0.49123   0.95356   1.000
    O25     O    0.95367   0.49129   0.60139   1.000
    O26     O    0.04623   0.39857   0.04628   1.000
    O27     O    0.95368   0.60162   0.95368   1.000
    O28     O    0.39843   0.04636   0.50884   1.000
    O29     O    0.04620   0.04642   0.50873   1.000
    O30     O    0.04623   0.39854   0.50890   1.000
    O31     O    0.49138   0.95368   0.60133   1.000
    O32     O    0.60147   0.95364   0.49106   1.000
    O33     O    0.04631   0.04625   0.39841   1.000
    O34     O    0.49142   0.60137   0.95350   1.000
    O35     O    0.95373   0.95370   0.60139   1.000
    O36     O    0.95370   0.95360   0.49109   1.000
    O37     O    0.95374   0.60139   0.49113   1.000
loop_
    _geom_bond_atom_site_label_1
    _geom_bond_atom_site_label_2
    _geom_bond_distance
    _geom_bond_site_symmetry_2
    _ccdc_geom_bond_type
    N7     O14       3.86286      .   S
    Zr8    O14       1.62327  1_566   S
    N7     O15       3.86349      .   S
    Zr10   O15       1.62350      .   S
    N7     O16       3.86313      .   S
    Zr12   O16       1.62339  1_556   S
    N6     O17       3.86264      .   S
    Zr11   O17       1.62321  1_656   S
    N6     O18       3.86217      .   S
    Zr12   O18       1.62298  1_556   S
    N6     O19       3.86253      .   S
    Zr9    O19       1.62317  1_655   S
    Zr8    O20       1.62333  1_566   S
    N1     O20       3.86289      .   S
    Zr8    O21       1.62314      .   S
    N3     O21       3.86271      .   S
    Zr8    O22       1.62339      .   S
    N0     O22       3.86302      .   S
    N2     O23       3.86179      .   S
    Zr11   O23       1.62270      .   S
    N2     O24       3.86227      .   S
    Zr12   O24       1.62299      .   S
    N2     O25       3.86241      .   S
    Zr9    O25       1.62305      .   S
    Zr11   O26       1.62373  1_656   S
    N1     O26       3.86370      .   S
    Zr11   O27       1.62344      .   S
    N0     O27       3.86311      .   S
    N5     O28       3.86229      .   S
    Zr10   O28       1.62299      .   S
    N5     O29       3.86218      .   S
    Zr13   O29       1.62299  1_665   S
    N5     O30       3.86176      .   S
    Zr9    O30       1.62279  1_655   S
    Zr10   O31       1.62354  1_545   S
    N3     O31       3.86352      .   S
    Zr10   O32       1.62292  1_545   S
    N4     O32       3.86206      .   S
    N1     O33       3.86332      .   S
    Zr13   O33       1.62355  1_665   S
    Zr12   O34       1.62337      .   S
    N3     O34       3.86305      .   S
    N0     O35       3.86349      .   S
    Zr13   O35       1.62363      .   S
    Zr13   O36       1.62298      .   S
    N4     O36       3.86220      .   S
    N4     O37       3.86191      .   S
    Zr9    O37       1.62287      .   S
