# CIF file generated by openbabel 2.4.90, see http://openbabel.sf.net
data_I
_chemical_name_common ''
_cell_length_a 18.942
_cell_length_b 18.96
_cell_length_c 18.965
_cell_angle_alpha 59.983
_cell_angle_beta 60.023
_cell_angle_gamma 60.017
_space_group_name_H-M_alt 'P 1'
_space_group_name_Hall 'P 1'
loop_
    _symmetry_equiv_pos_as_xyz
    x,y,z
loop_
    _atom_site_label
    _atom_site_type_symbol
    _atom_site_fract_x
    _atom_site_fract_y
    _atom_site_fract_z
    _atom_site_occupancy
    N0      N    0.84170   0.84183   0.84161   1.000
    N1      N    0.15824   0.15829   0.15824   1.000
    N2      N    0.84168   0.47557   0.84128   1.000
    N3      N    0.47583   0.84141   0.84132   1.000
    N4      N    0.84172   0.84144   0.47502   1.000
    N5      N    0.15816   0.15853   0.52489   1.000
    N6      N    0.15842   0.52442   0.15875   1.000
    N7      N    0.52414   0.15852   0.15856   1.000
    Zr8     Zr   0.49994   0.99998   0.99995   1.000
    O9      O    0.50852   0.03036   0.06234   1.000
    O10     O    0.39843   0.03032   0.06213   1.000
    O11     O    0.49136   0.93757   0.96953   1.000
    O12     O    0.60145   0.93783   0.96956   1.000
    O13     O    0.39843   0.06226   0.03025   1.000
    O14     O    0.49137   0.96951   0.93765   1.000
    O15     O    0.60149   0.96975   0.93766   1.000
    O16     O    0.50856   0.06228   0.03043   1.000
    Zr17    Zr   0.99998   0.49996   0.50004   1.000
    O18     O    0.93778   0.60137   0.49112   1.000
    O19     O    0.93771   0.49127   0.60139   1.000
    O20     O    0.03027   0.39852   0.50889   1.000
    O21     O    0.03034   0.50861   0.39866   1.000
    O22     O    0.96969   0.60142   0.49114   1.000
    O23     O    0.06224   0.50868   0.39868   1.000
    O24     O    0.06220   0.39855   0.50890   1.000
    O25     O    0.96963   0.49132   0.60139   1.000
    Zr26    Zr   0.49995   0.00005   0.49995   1.000
    O27     O    0.39838   0.03042   0.50885   1.000
    O28     O    0.50850   0.03048   0.39857   1.000
    O29     O    0.60144   0.93770   0.49107   1.000
    O30     O    0.49133   0.93775   0.60134   1.000
    O31     O    0.50859   0.06237   0.39854   1.000
    O32     O    0.39847   0.06229   0.50883   1.000
    O33     O    0.49143   0.96962   0.60133   1.000
    O34     O    0.60151   0.96959   0.49105   1.000
    Zr35    Zr   0.99999   0.50011   0.99995   1.000
    O36     O    0.06218   0.39860   0.03033   1.000
    O37     O    0.96969   0.49144   0.93753   1.000
    O38     O    0.06231   0.50877   0.03046   1.000
    O39     O    0.96965   0.60163   0.93774   1.000
    O40     O    0.93778   0.49139   0.96943   1.000
    O41     O    0.03027   0.39855   0.06222   1.000
    O42     O    0.03038   0.50872   0.06235   1.000
    O43     O    0.93772   0.60160   0.96962   1.000
    Zr44    Zr   0.50006   0.49994   0.99992   1.000
    O45     O    0.60158   0.49124   0.96948   1.000
    O46     O    0.49146   0.60137   0.96943   1.000
    O47     O    0.39860   0.50870   0.06235   1.000
    O48     O    0.50869   0.39855   0.06219   1.000
    O49     O    0.39855   0.50867   0.03049   1.000
    O50     O    0.60149   0.49122   0.93764   1.000
    O51     O    0.50862   0.39851   0.03034   1.000
    O52     O    0.49139   0.60137   0.93757   1.000
    Zr53    Zr   0.99999   0.99998   0.49990   1.000
    O54     O    0.93774   0.96955   0.49109   1.000
    O55     O    0.03025   0.06239   0.50872   1.000
    O56     O    0.03035   0.06220   0.39842   1.000
    O57     O    0.93778   0.96966   0.60138   1.000
    O58     O    0.06215   0.03046   0.50874   1.000
    O59     O    0.06227   0.03029   0.39841   1.000
    O60     O    0.96968   0.93773   0.60141   1.000
    O61     O    0.96966   0.93765   0.49109   1.000
loop_
    _geom_bond_atom_site_label_1
    _geom_bond_atom_site_label_2
    _geom_bond_distance
    _geom_bond_site_symmetry_2
    _ccdc_geom_bond_type
    Zr8    O9        1.65124  1_566   S
    N7     O9        3.87487      .   S
    Zr8    O10       1.65112  1_566   S
    N1     O10       3.87473      .   S
    Zr8    O11       1.65171      .   S
    N3     O11       3.87413      .   S
    Zr8    O12       1.65080      .   S
    N0     O12       3.87513      .   S
    Zr8    O13       1.65143  1_566   S
    N1     O13       3.87470      .   S
    Zr8    O14       1.65045      .   S
    N3     O14       3.87494      .   S
    Zr8    O15       1.65185      .   S
    N0     O15       3.87456      .   S
    Zr8    O16       1.65120  1_566   S
    N7     O16       3.87451      .   S
    Zr17   O18       1.65023      .   S
    N4     O18       3.87421      .   S
    Zr17   O19       1.65068      .   S
    N2     O19       3.87460      .   S
    Zr17   O20       1.65119  1_655   S
    N5     O20       3.87312      .   S
    Zr17   O21       1.65155  1_655   S
    N6     O21       3.87410      .   S
    Zr17   O22       1.65143      .   S
    N4     O22       3.87329      .   S
    Zr17   O23       1.65070  1_655   S
    N6     O23       3.87462      .   S
    Zr17   O24       1.65032  1_655   S
    N5     O24       3.87407      .   S
    Zr17   O25       1.65133      .   S
    N2     O25       3.87388      .   S
    Zr26   O27       1.65142      .   S
    N5     O27       3.87375      .   S
    Zr26   O28       1.65154      .   S
    N7     O28       3.87511      .   S
    Zr26   O29       1.65093  1_545   S
    N4     O29       3.87400      .   S
    Zr26   O30       1.65101  1_545   S
    N3     O30       3.87558      .   S
    Zr26   O31       1.65135      .   S
    N7     O31       3.87551      .   S
    Zr26   O32       1.65046      .   S
    N5     O32       3.87449      .   S
    Zr26   O33       1.65196  1_545   S
    N3     O33       3.87512      .   S
    Zr26   O34       1.65082  1_545   S
    N4     O34       3.87378      .   S
    Zr35   O36       1.65120  1_656   S
    N1     O36       3.87577      .   S
    Zr35   O37       1.65112      .   S
    N2     O37       3.87342      .   S
    Zr35   O38       1.65112  1_656   S
    N6     O38       3.87450      .   S
    Zr35   O39       1.65133      .   S
    N0     O39       3.87484      .   S
    Zr35   O40       1.65018      .   S
    N2     O40       3.87381      .   S
    Zr35   O41       1.65210  1_656   S
    N1     O41       3.87527      .   S
    Zr35   O42       1.65117  1_656   S
    N6     O42       3.87442      .   S
    Zr35   O43       1.65142      .   S
    N0     O43       3.87503      .   S
    Zr44   O45       1.65140      .   S
    N2     O45       3.87375      .   S
    Zr44   O46       1.65144      .   S
    N3     O46       3.87458      .   S
    Zr44   O47       1.65124  1_556   S
    N6     O47       3.87396      .   S
    Zr44   O48       1.65056  1_556   S
    N7     O48       3.87546      .   S
    Zr44   O49       1.65061  1_556   S
    N6     O49       3.87404      .   S
    Zr44   O50       1.65048      .   S
    N2     O50       3.87445      .   S
    Zr44   O51       1.65209  1_556   S
    N7     O51       3.87444      .   S
    Zr44   O52       1.65118      .   S
    N3     O52       3.87517      .   S
    Zr53   O54       1.65057      .   S
    N4     O54       3.87436      .   S
    Zr53   O55       1.65178  1_665   S
    N5     O55       3.87346      .   S
    Zr53   O56       1.65130  1_665   S
    N1     O56       3.87517      .   S
    Zr53   O57       1.65137      .   S
    N0     O57       3.87537      .   S
    Zr53   O58       1.65009  1_665   S
    N5     O58       3.87455      .   S
    Zr53   O59       1.65168  1_665   S
    N1     O59       3.87513      .   S
    Zr53   O60       1.65177      .   S
    N0     O60       3.87525      .   S
    Zr53   O61       1.65128      .   S
    N4     O61       3.87370      .   S
