# CIF file generated by openbabel 2.4.90, see http://openbabel.sf.net
data_I
_chemical_name_common 'VESTA_phase_1'
_cell_length_a 18.795
_cell_length_b 18.726
_cell_length_c 18.724
_cell_angle_alpha 60.224
_cell_angle_beta 60.401
_cell_angle_gamma 60.366
_space_group_name_H-M_alt 'P 1'
_space_group_name_Hall 'P 1'
loop_
    _symmetry_equiv_pos_as_xyz
    x,y,z
loop_
    _atom_site_label
    _atom_site_type_symbol
    _atom_site_fract_x
    _atom_site_fract_y
    _atom_site_fract_z
    _atom_site_occupancy
    Zn0     Zn   0.54243   0.37108   0.54281   1.000
    Zn1     Zn   0.37210   0.54247   0.54249   1.000
    Zn2     Zn   0.54276   0.54347   0.54336   1.000
    Zn3     Zn   0.54249   0.54281   0.37111   1.000
    Zn4     Zn   0.12731   0.95767   0.95760   1.000
    Zn5     Zn   0.95762   0.12847   0.95721   1.000
    Zn6     Zn   0.95761   0.95724   0.12838   1.000
    Zn7     Zn   0.95728   0.95656   0.95666   1.000
    H8      H    0.31865   0.08925   0.79602   1.000
    H9      H    0.09035   0.32046   0.79493   1.000
    H10     H    0.79590   0.79607   0.31944   1.000
    H11     H    0.79482   0.79421   0.08943   1.000
    H12     H    0.31816   0.79677   0.79660   1.000
    H13     H    0.09044   0.79376   0.79383   1.000
    H14     H    0.79565   0.32014   0.08937   1.000
    H15     H    0.79546   0.08930   0.31990   1.000
    H16     H    0.31862   0.79618   0.08928   1.000
    H17     H    0.09034   0.79479   0.32026   1.000
    H18     H    0.79499   0.08939   0.79422   1.000
    H19     H    0.79586   0.31942   0.79610   1.000
    C20     C    0.32455   0.22017   0.72741   1.000
    C21     C    0.28386   0.15900   0.77854   1.000
    C22     C    0.22109   0.32492   0.72693   1.000
    C23     C    0.15958   0.28484   0.77796   1.000
    C24     C    0.72739   0.72778   0.32489   1.000
    C25     C    0.77847   0.77856   0.28426   1.000
    C26     C    0.72691   0.72695   0.22072   1.000
    C27     C    0.77789   0.77756   0.15907   1.000
    C28     C    0.32459   0.72794   0.72786   1.000
    C29     C    0.28359   0.77894   0.77882   1.000
    C30     C    0.22137   0.72659   0.72663   1.000
    C31     C    0.15963   0.77732   0.77733   1.000
    C32     C    0.72703   0.32495   0.22045   1.000
    C33     C    0.77834   0.28466   0.15905   1.000
    C34     C    0.72692   0.22034   0.32493   1.000
    C35     C    0.77823   0.15902   0.28454   1.000
    C36     C    0.32470   0.72742   0.22013   1.000
    C37     C    0.28390   0.77860   0.15901   1.000
    C38     C    0.22103   0.72677   0.32502   1.000
    C39     C    0.15960   0.77784   0.28478   1.000
    C40     C    0.72689   0.22059   0.72686   1.000
    C41     C    0.77793   0.15906   0.77751   1.000
    C42     C    0.72728   0.32513   0.72771   1.000
    C43     C    0.77839   0.28433   0.77853   1.000
    C44     C    0.30836   0.30777   0.69162   1.000
    C45     C    0.19229   0.19275   0.80770   1.000
    C46     C    0.13597   0.13673   0.86404   1.000
    C47     C    0.36447   0.36368   0.63541   1.000
    C48     C    0.69162   0.69207   0.30800   1.000
    C49     C    0.80761   0.80727   0.19219   1.000
    C50     C    0.86400   0.86326   0.13583   1.000
    C51     C    0.63542   0.63621   0.36456   1.000
    C52     C    0.30870   0.69189   0.69188   1.000
    C53     C    0.19202   0.80741   0.80700   1.000
    C54     C    0.13552   0.86358   0.86350   1.000
    C55     C    0.36494   0.63588   0.63588   1.000
    C56     C    0.69130   0.30799   0.30808   1.000
    C57     C    0.80786   0.19258   0.19248   1.000
    C58     C    0.86445   0.13645   0.13628   1.000
    C59     C    0.63497   0.36397   0.36410   1.000
    C60     C    0.30833   0.69161   0.30777   1.000
    C61     C    0.19233   0.80766   0.19273   1.000
    C62     C    0.13600   0.86405   0.13666   1.000
    C63     C    0.36444   0.63544   0.36372   1.000
    C64     C    0.69164   0.30835   0.69207   1.000
    C65     C    0.80758   0.19225   0.80720   1.000
    C66     C    0.86397   0.13589   0.86320   1.000
    C67     C    0.63542   0.36454   0.63618   1.000
    O68     O    0.17481   0.05455   0.88565   1.000
    O69     O    0.44571   0.32370   0.61458   1.000
    O70     O    0.05427   0.17608   0.88538   1.000
    O71     O    0.32491   0.44540   0.61440   1.000
    O72     O    0.88561   0.88496   0.17514   1.000
    O73     O    0.61457   0.61580   0.44620   1.000
    O74     O    0.88536   0.88424   0.05366   1.000
    O75     O    0.61445   0.61503   0.32455   1.000
    O76     O    0.17435   0.88548   0.88546   1.000
    O77     O    0.44620   0.61549   0.61542   1.000
    O78     O    0.05381   0.88449   0.88453   1.000
    O79     O    0.32537   0.61458   0.61460   1.000
    O80     O    0.88605   0.17583   0.05411   1.000
    O81     O    0.61418   0.44571   0.32400   1.000
    O82     O    0.88609   0.05426   0.17560   1.000
    O83     O    0.61394   0.32394   0.44581   1.000
    O84     O    0.17482   0.88579   0.05451   1.000
    O85     O    0.44568   0.61480   0.32380   1.000
    O86     O    0.05431   0.88540   0.17597   1.000
    O87     O    0.32489   0.61436   0.44540   1.000
    O88     O    0.88522   0.05370   0.88440   1.000
    O89     O    0.61437   0.32453   0.61508   1.000
    O90     O    0.88571   0.17523   0.88480   1.000
    O91     O    0.61467   0.44627   0.61564   1.000
    O92     O    0.99967   0.00002   0.99996   1.000
    O93     O    0.50017   0.49995   0.49990   1.000
loop_
    _geom_bond_atom_site_label_1
    _geom_bond_atom_site_label_2
    _geom_bond_distance
    _geom_bond_site_symmetry_2
    _ccdc_geom_bond_type
    O74    C50       1.27597      .   S
    O74    Zn7       1.97536  1_554   S
    O80    C58       1.27590      .   S
    O80    Zn5       1.97370  1_554   S
    O84    C62       1.27561      .   S
    O84    Zn4       1.97182  1_554   S
    H16    C37       1.08755      .   S
    H14    C33       1.08763      .   S
    H11    C27       1.08773      .   S
    Zn6    O72       1.97314      .   S
    Zn6    O82       1.97367  1_565   S
    Zn6    O86       1.97443  1_655   S
    C50    O72       1.27581      .   S
    C50    C49       1.49382      .   S
    C58    O82       1.27584      .   S
    C58    C57       1.49347      .   S
    C62    O86       1.27590      .   S
    C62    C61       1.49314      .   S
    C37    C61       1.41356      .   S
    C37    C36       1.36637      .   S
    C33    C57       1.41358      .   S
    C33    C32       1.36654      .   S
    C27    C49       1.41354      .   S
    C27    C26       1.36663      .   S
    C49    C25       1.41380      .   S
    C57    C35       1.41358      .   S
    C61    C39       1.41325      .   S
    C36    C60       1.35997      .   S
    C32    C56       1.35974      .   S
    C26    C48       1.35452      .   S
    C25    H10       1.08754      .   S
    C25    C24       1.36658      .   S
    C35    H15       1.08762      .   S
    C35    C34       1.36656      .   S
    C39    H17       1.08765      .   S
    C39    C38       1.36641      .   S
    C60    C38       1.36004      .   S
    C60    C63       1.48853      .   S
    C48    C24       1.36511      .   S
    C48    C51       1.48960      .   S
    C56    C34       1.35987      .   S
    C56    C59       1.48919      .   S
    O85    C63       1.27103      .   S
    O85    Zn3       1.97317      .   S
    O81    C59       1.27124      .   S
    O81    Zn3       1.97390      .   S
    O75    C51       1.27081      .   S
    O75    Zn3       1.97260      .   S
    C63    O87       1.27078      .   S
    C59    O83       1.27099      .   S
    C51    O73       1.26982      .   S
    Zn3    O93       1.97641      .   S
    O87    Zn1       1.97126      .   S
    O83    Zn0       1.97285      .   S
    O73    Zn2       1.97498      .   S
    O93    Zn1       1.97558      .   S
    Zn1    O71       1.97166      .   S
    Zn1    O79       1.97085      .   S
    Zn0    O69       1.97363      .   S
    Zn0    O89       1.97220      .   S
    Zn2    O77       1.97508      .   S
    Zn2    O91       1.97449      .   S
    O71    C47       1.27079      .   S
    O69    C47       1.27097      .   S
    O79    C55       1.27089      .   S
    O89    C67       1.27105      .   S
    O77    C55       1.27113      .   S
    O91    C67       1.27106      .   S
    C47    C44       1.48895      .   S
    C55    C52       1.48924      .   S
    C67    C64       1.48921      .   S
    C44    C22       1.35980      .   S
    C44    C20       1.35971      .   S
    C52    C30       1.36000      .   S
    C52    C28       1.35974      .   S
    C64    C40       1.36042      .   S
    C64    C42       1.36033      .   S
    C30    C31       1.36652      .   S
    C40    C41       1.36648      .   S
    C22    C23       1.36649      .   S
    C20    C21       1.36645      .   S
    C42    C43       1.36645      .   S
    C28    C29       1.36649      .   S
    C31    H13       1.08766      .   S
    C31    C53       1.40756      .   S
    C41    H18       1.08769      .   S
    C41    C65       1.41347      .   S
    C23    H9        1.08762      .   S
    C23    C45       1.41345      .   S
    C43    H19       1.08736      .   S
    C43    C65       1.41364      .   S
    C21    H8        1.08757      .   S
    C21    C45       1.41369      .   S
    C29    H12       1.08762      .   S
    C29    C53       1.41411      .   S
    C53    C54       1.49795      .   S
    C65    C66       1.49300      .   S
    C45    C46       1.49326      .   S
    C66    O88       1.27577      .   S
    C66    O90       1.27667      .   S
    C54    O78       1.27593      .   S
    C54    O76       1.27661      .   S
    C46    O70       1.27589      .   S
    C46    O68       1.27568      .   S
    O88    Zn7       1.97563  1_545   S
    O78    Zn7       1.97627  1_455   S
    O90    Zn5       1.97294      .   S
    O70    Zn5       1.97500  1_455   S
    O76    Zn4       1.97121      .   S
    O68    Zn4       1.97209  1_545   S
    Zn5    O92       1.97072      .   S
    Zn4    O92       1.96894  1_465   S
    O92    Zn6       1.97073  1_546   S
    O92    Zn7       1.97193  1_545   S
    O93    Zn0       1.97718      .   S
    O93    Zn2       1.97854      .   S
