# CIF file generated by openbabel 2.4.90, see http://openbabel.sf.net
data_I
_chemical_name_common ''
_cell_length_a 23.173
_cell_length_b 23.132
_cell_length_c 22.876
_cell_angle_alpha 89.923
_cell_angle_beta 90.038
_cell_angle_gamma 119.768
_space_group_name_H-M_alt 'P 1'
_space_group_name_Hall 'P 1'
loop_
    _symmetry_equiv_pos_as_xyz
    x,y,z
loop_
    _atom_site_label
    _atom_site_type_symbol
    _atom_site_fract_x
    _atom_site_fract_y
    _atom_site_fract_z
    _atom_site_occupancy
    Zr0     Zr   0.26104   0.38083   0.91680   1.000
    Zr1     Zr   0.26104   0.88082   0.91684   1.000
    Zr2     Zr   0.76103   0.38083   0.91684   1.000
    Zr3     Zr   0.76103   0.88082   0.91684   1.000
    Zr4     Zr   0.11890   0.23864   0.58320   1.000
    Zr5     Zr   0.11890   0.73863   0.58321   1.000
    Zr6     Zr   0.61889   0.23864   0.58320   1.000
    Zr7     Zr   0.61889   0.73863   0.58321   1.000
    Zr8     Zr   0.11929   0.38063   0.25002   1.000
    Zr9     Zr   0.11929   0.88062   0.25002   1.000
    Zr10    Zr   0.61928   0.38063   0.25002   1.000
    Zr11    Zr   0.61928   0.88062   0.25002   1.000
    Zr12    Zr   0.23876   0.11903   0.41682   1.000
    Zr13    Zr   0.23876   0.61902   0.41682   1.000
    Zr14    Zr   0.73875   0.11903   0.41682   1.000
    Zr15    Zr   0.73875   0.61902   0.41682   1.000
    Zr16    Zr   0.38118   0.26124   0.08330   1.000
    Zr17    Zr   0.38118   0.76123   0.08330   1.000
    Zr18    Zr   0.88117   0.26124   0.08330   1.000
    Zr19    Zr   0.88117   0.76123   0.08330   1.000
    Zr20    Zr   0.38079   0.11952   0.74997   1.000
    Zr21    Zr   0.38079   0.61951   0.74997   1.000
    Zr22    Zr   0.88078   0.11952   0.74997   1.000
    Zr23    Zr   0.88078   0.61951   0.74997   1.000
    N24     N    0.82151   0.32150   0.00003   1.000
    N25     N    0.67848   0.99970   0.33352   1.000
    N26     N    0.01307   0.25618   0.91659   1.000
    O27     O    0.96389   0.20790   0.85146   1.000
    O28     O    0.96398   0.25536   0.98178   1.000
    N29     N    0.99974   0.67855   0.66646   1.000
    N30     N    0.67848   0.49971   0.33352   1.000
    N31     N    0.75610   0.01295   0.08333   1.000
    O32     O    0.80372   0.10713   0.08341   1.000
    O33     O    0.70772   0.96375   0.14848   1.000
    O34     O    0.75512   0.96379   0.01814   1.000
    N35     N    0.67836   0.67834   0.50006   1.000
    N36     N    0.32152   0.82149   0.00007   1.000
    N37     N    0.49973   0.67855   0.66646   1.000
    N38     N    0.50039   0.82148   0.16638   1.000
    N39     N    0.82140   0.50033   0.83355   1.000
    N40     N    0.99973   0.17856   0.66646   1.000
    N41     N    0.17837   0.17835   0.50005   1.000
    N42     N    0.32152   0.32150   0.00008   1.000
    N43     N    0.50039   0.32149   0.16638   1.000
    N44     N    0.00039   0.82148   0.16638   1.000
    N45     N    0.49973   0.17856   0.66646   1.000
    N46     N    0.17837   0.67834   0.50006   1.000
    N47     N    0.82151   0.82149   0.00004   1.000
    N48     N    0.00039   0.32149   0.16638   1.000
    N49     N    0.74382   0.25638   0.25000   1.000
    O50     O    0.74450   0.20787   0.31523   1.000
    O51     O    0.69654   0.30349   0.24997   1.000
    N52     N    0.32141   0.50033   0.83355   1.000
    N53     N    0.51308   0.75617   0.91658   1.000
    O54     O    0.46390   0.70789   0.85143   1.000
    O55     O    0.46398   0.75535   0.98178   1.000
    N56     N    0.01308   0.75617   0.91659   1.000
    O57     O    0.96398   0.75535   0.98178   1.000
    O58     O    0.96389   0.70789   0.85146   1.000
    N59     N    0.17849   0.99971   0.33352   1.000
    N60     N    0.17849   0.49970   0.33352   1.000
    N61     N    0.32141   0.00033   0.83355   1.000
    N62     N    0.67836   0.17835   0.50001   1.000
    N63     N    0.25611   0.51295   0.08332   1.000
    O64     O    0.30373   0.60713   0.08341   1.000
    O65     O    0.20773   0.46375   0.14848   1.000
    O66     O    0.25513   0.46380   0.01813   1.000
    N67     N    0.75610   0.51295   0.08333   1.000
    O68     O    0.75512   0.46380   0.01814   1.000
    O69     O    0.80372   0.60713   0.08341   1.000
    O70     O    0.70772   0.46375   0.14848   1.000
    N71     N    0.74382   0.75637   0.25000   1.000
    O72     O    0.74450   0.70786   0.31523   1.000
    O73     O    0.69654   0.80348   0.24997   1.000
    N74     N    0.25611   0.01295   0.08333   1.000
    O75     O    0.25513   0.96379   0.01814   1.000
    O76     O    0.30373   0.10713   0.08341   1.000
    O77     O    0.20773   0.96375   0.14848   1.000
    N78     N    0.75621   0.74365   0.75006   1.000
    O79     O    0.75543   0.79209   0.81526   1.000
    O80     O    0.80358   0.69667   0.74999   1.000
    O81     O    0.70758   0.74423   0.68487   1.000
    N82     N    0.51308   0.25618   0.91659   1.000
    O83     O    0.46398   0.25536   0.98178   1.000
    O84     O    0.46390   0.20790   0.85146   1.000
    N85     N    0.75621   0.24366   0.75005   1.000
    O86     O    0.70758   0.24424   0.68486   1.000
    O87     O    0.80358   0.19668   0.74998   1.000
    O88     O    0.75543   0.29210   0.81526   1.000
    N89     N    0.24383   0.25638   0.25000   1.000
    O90     O    0.19655   0.30349   0.24997   1.000
    O91     O    0.24451   0.20787   0.31523   1.000
    N92     N    0.25622   0.74365   0.75006   1.000
    O93     O    0.20759   0.74423   0.68487   1.000
    O94     O    0.30359   0.69667   0.74999   1.000
    O95     O    0.25544   0.79210   0.81526   1.000
    N96     N    0.82140   0.00033   0.83355   1.000
    N97     N    0.24383   0.75637   0.25000   1.000
    O98     O    0.19655   0.80348   0.24997   1.000
    O99     O    0.24451   0.70786   0.31524   1.000
    N100    N    0.25622   0.24366   0.75006   1.000
    O101    O    0.20759   0.24424   0.68487   1.000
    O102    O    0.30359   0.19668   0.74999   1.000
    O103    O    0.25544   0.29210   0.81525   1.000
    O104    O    0.65836   0.19765   0.52730   1.000
    O105    O    0.53884   0.19782   0.63913   1.000
    O106    O    0.15857   0.46060   0.30615   1.000
    O107    O    0.03945   0.34139   0.19378   1.000
    O108    O    0.46128   0.80217   0.13906   1.000
    O109    O    0.34156   0.80218   0.02738   1.000
    O110    O    0.19771   0.15838   0.47276   1.000
    O111    O    0.19780   0.03887   0.36086   1.000
    O112    O    0.34156   0.30219   0.02740   1.000
    O113    O    0.46128   0.30218   0.13906   1.000
    O114    O    0.80212   0.84144   0.97263   1.000
    O115    O    0.80204   0.96111   0.86090   1.000
    O116    O    0.30213   0.34145   0.97264   1.000
    O117    O    0.84155   0.80218   0.02738   1.000
    O118    O    0.84135   0.53947   0.80616   1.000
    O119    O    0.80204   0.46112   0.86090   1.000
    O120    O    0.53884   0.69781   0.63914   1.000
    O121    O    0.65836   0.69764   0.52734   1.000
    O122    O    0.69770   0.15838   0.47274   1.000
    O123    O    0.69779   0.03887   0.36086   1.000
    O124    O    0.46067   0.15869   0.69383   1.000
    O125    O    0.34137   0.03947   0.80616   1.000
    O126    O    0.96066   0.65868   0.69383   1.000
    O127    O    0.69779   0.53886   0.36086   1.000
    O128    O    0.69770   0.65837   0.47277   1.000
    O129    O    0.53945   0.34139   0.19378   1.000
    O130    O    0.65856   0.46060   0.30615   1.000
    O131    O    0.34137   0.53947   0.80616   1.000
    O132    O    0.30205   0.46112   0.86089   1.000
    O133    O    0.19781   0.53886   0.36086   1.000
    O134    O    0.19771   0.65837   0.47276   1.000
    O135    O    0.96066   0.15869   0.69383   1.000
    O136    O    0.84135   0.03947   0.80616   1.000
    O137    O    0.15857   0.96059   0.30615   1.000
    O138    O    0.03945   0.84138   0.19378   1.000
    O139    O    0.96128   0.30218   0.13906   1.000
    O140    O    0.84155   0.30219   0.02737   1.000
    O141    O    0.46067   0.65868   0.69383   1.000
    O142    O    0.15837   0.19765   0.52733   1.000
    O143    O    0.03884   0.19782   0.63913   1.000
    O144    O    0.15837   0.69764   0.52734   1.000
    O145    O    0.03884   0.69781   0.63914   1.000
    O146    O    0.30205   0.96111   0.86090   1.000
    O147    O    0.30213   0.84144   0.97264   1.000
    O148    O    0.53945   0.84138   0.19378   1.000
    O149    O    0.65856   0.96059   0.30615   1.000
    O150    O    0.80212   0.34145   0.97262   1.000
    O151    O    0.96128   0.80217   0.13906   1.000
loop_
    _geom_bond_atom_site_label_1
    _geom_bond_atom_site_label_2
    _geom_bond_distance
    _geom_bond_site_symmetry_2
    _ccdc_geom_bond_type
    N26    O27       1.87210  1_455   S
    Zr22   O27       3.06202      .   S
    N26    O28       1.87068  1_455   S
    Zr18   O28       3.05944  1_554   S
    N31    O32       1.89133      .   S
    Zr18   O32       3.09453      .   S
    N31    O33       1.87203  1_545   S
    Zr11   O33       3.06176      .   S
    N31    O34       1.86974  1_545   S
    Zr3    O34       3.05715  1_556   S
    N49    O50       1.87063      .   S
    Zr14   O50       3.05900      .   S
    N49    O51       1.89027      .   S
    Zr10   O51       3.09236      .   S
    N53    O54       1.87230      .   S
    Zr21   O54       3.06161      .   S
    N53    O55       1.87070      .   S
    Zr17   O55       3.05946  1_554   S
    N56    O57       1.87068  1_455   S
    Zr19   O57       3.05944  1_554   S
    N56    O58       1.87210  1_455   S
    Zr23   O58       3.06203      .   S
    N63    O64       1.89122      .   S
    Zr17   O64       3.09443      .   S
    N63    O65       1.87203      .   S
    Zr8    O65       3.06175      .   S
    N63    O66       1.86984      .   S
    Zr0    O66       3.05761  1_556   S
    N67    O68       1.86968      .   S
    Zr2    O68       3.05710  1_556   S
    N67    O69       1.89122      .   S
    Zr19   O69       3.09441      .   S
    N67    O70       1.87200      .   S
    Zr10   O70       3.06172      .   S
    N71    O72       1.87063      .   S
    Zr15   O72       3.05900      .   S
    N71    O73       1.89026      .   S
    Zr11   O73       3.09236      .   S
    N74    O75       1.86975  1_545   S
    Zr1    O75       3.05716  1_556   S
    N74    O76       1.89133      .   S
    Zr16   O76       3.09453      .   S
    N74    O77       1.87202  1_545   S
    Zr9    O77       3.06174      .   S
    N78    O79       1.87238      .   S
    Zr3    O79       3.06209      .   S
    N78    O80       1.88966      .   S
    Zr23   O80       3.09127      .   S
    N78    O81       1.87255      .   S
    Zr7    O81       3.06254      .   S
    N82    O83       1.87061      .   S
    Zr16   O83       3.05936  1_554   S
    N82    O84       1.87206      .   S
    Zr20   O84       3.06200      .   S
    N85    O86       1.87248      .   S
    Zr6    O86       3.06254      .   S
    N85    O87       1.88966      .   S
    Zr22   O87       3.09126      .   S
    N85    O88       1.87249      .   S
    Zr2    O88       3.06220      .   S
    N89    O90       1.89027      .   S
    Zr8    O90       3.09236      .   S
    N89    O91       1.87063      .   S
    Zr12   O91       3.05901      .   S
    N92    O93       1.87255      .   S
    Zr5    O93       3.06253      .   S
    N92    O94       1.88967      .   S
    Zr21   O94       3.09127      .   S
    N92    O95       1.87238      .   S
    Zr1    O95       3.06209      .   S
    N97    O98       1.89026      .   S
    Zr9    O98       3.09236      .   S
    N97    O99       1.87063      .   S
    Zr13   O99       3.05900      .   S
    N100   O101      1.87260      .   S
    Zr4    O101      3.06266      .   S
    N100   O102      1.88967      .   S
    Zr20   O102      3.09127      .   S
    N100   O103      1.87219      .   S
    Zr0    O103      3.06156      .   S
    Zr6    O104      2.05815      .   S
    N62    O104      1.00544      .   S
    Zr6    O105      2.05685      .   S
    N45    O105      1.00470      .   S
    Zr8    O106      2.05723      .   S
    N60    O106      1.00497      .   S
    Zr8    O107      2.05765      .   S
    N48    O107      1.00534      .   S
    Zr17   O108      2.05518      .   S
    N38    O108      1.00469      .   S
    Zr17   O109      2.05785      .   S
    N36    O109      1.00533      .   S
    Zr12   O110      2.05814      .   S
    N41    O110      1.00527      .   S
    Zr12   O111      2.05794      .   S
    N59    O111      1.00532  1_565   S
    Zr16   O112      2.05761      .   S
    N42    O112      1.00539      .   S
    Zr16   O113      2.05517      .   S
    N43    O113      1.00469      .   S
    Zr3    O114      2.05464      .   S
    N47    O114      1.00632  1_554   S
    Zr3    O115      2.05738      .   S
    N96    O115      1.00517  1_545   S
    N42    O116      1.00679  1_554   S
    Zr0    O116      2.05537      .   S
    N47    O117      1.00569      .   S
    Zr19   O117      2.05793      .   S
    N39    O118      1.00471      .   S
    Zr23   O118      2.05677      .   S
    N39    O119      1.00509      .   S
    Zr2    O119      2.05730      .   S
    Zr7    O120      2.05676      .   S
    N37    O120      1.00468      .   S
    Zr7    O121      2.05774      .   S
    N35    O121      1.00522      .   S
    Zr14   O122      2.05779      .   S
    N62    O122      1.00495      .   S
    Zr14   O123      2.05795      .   S
    N25    O123      1.00532  1_565   S
    Zr20   O124      2.05697      .   S
    N45    O124      1.00492      .   S
    Zr20   O125      2.05684      .   S
    N61    O125      1.00478      .   S
    Zr23   O126      2.05704      .   S
    N29    O126      1.00499      .   S
    Zr15   O127      2.05784      .   S
    N30    O127      1.00523      .   S
    Zr15   O128      2.05819      .   S
    N35    O128      1.00531      .   S
    N43    O129      1.00526      .   S
    Zr10   O129      2.05757      .   S
    N30    O130      1.00497      .   S
    Zr10   O130      2.05723      .   S
    N52    O131      1.00471      .   S
    Zr21   O131      2.05677      .   S
    N52    O132      1.00495      .   S
    Zr0    O132      2.05688      .   S
    Zr13   O133      2.05785      .   S
    N60    O133      1.00523      .   S
    Zr13   O134      2.05816      .   S
    N46    O134      1.00531      .   S
    Zr22   O135      2.05704      .   S
    N40    O135      1.00499      .   S
    Zr22   O136      2.05684      .   S
    N96    O136      1.00478      .   S
    Zr9    O137      2.05729      .   S
    N59    O137      1.00502      .   S
    Zr9    O138      2.05764      .   S
    N44    O138      1.00534      .   S
    Zr18   O139      2.05525      .   S
    N48    O139      1.00477  1_455   S
    Zr18   O140      2.05801      .   S
    N24    O140      1.00576      .   S
    Zr21   O141      2.05695      .   S
    N37    O141      1.00491      .   S
    Zr4    O142      2.05782      .   S
    N41    O142      1.00510      .   S
    Zr4    O143      2.05695      .   S
    N40    O143      1.00479  1_655   S
    Zr5    O144      2.05775      .   S
    N46    O144      1.00525      .   S
    Zr5    O145      2.05683      .   S
    N29    O145      1.00476  1_655   S
    Zr1    O146      2.05737      .   S
    N61    O146      1.00516  1_545   S
    Zr1    O147      2.05486      .   S
    N36    O147      1.00654  1_554   S
    Zr11   O148      2.05756      .   S
    N38    O148      1.00525      .   S
    Zr11   O149      2.05728      .   S
    N25    O149      1.00502      .   S
    Zr2    O150      2.05456      .   S
    N24    O150      1.00625  1_554   S
    Zr19   O151      2.05527      .   S
    N44    O151      1.00478  1_455   S
