# CIF file generated by openbabel 2.4.90, see http://openbabel.sf.net
data_I
_chemical_name_common ''
_cell_length_a 23.173
_cell_length_b 23.132
_cell_length_c 22.876
_cell_angle_alpha 89.923
_cell_angle_beta 90.038
_cell_angle_gamma 119.768
_space_group_name_H-M_alt 'P 1'
_space_group_name_Hall 'P 1'
loop_
    _symmetry_equiv_pos_as_xyz
    x,y,z
loop_
    _atom_site_label
    _atom_site_type_symbol
    _atom_site_fract_x
    _atom_site_fract_y
    _atom_site_fract_z
    _atom_site_occupancy
    Zr0     Zr   0.26104   0.38083   0.91680   1.000
    Zr1     Zr   0.26104   0.88082   0.91684   1.000
    Zr2     Zr   0.76103   0.38083   0.91684   1.000
    Zr3     Zr   0.76103   0.88082   0.91684   1.000
    Zr4     Zr   0.11890   0.23864   0.58320   1.000
    Zr5     Zr   0.11890   0.73863   0.58321   1.000
    Zr6     Zr   0.61889   0.23864   0.58320   1.000
    Zr7     Zr   0.61889   0.73863   0.58321   1.000
    Zr8     Zr   0.11929   0.38063   0.25002   1.000
    Zr9     Zr   0.11929   0.88062   0.25002   1.000
    Zr10    Zr   0.61928   0.38063   0.25002   1.000
    Zr11    Zr   0.61928   0.88062   0.25002   1.000
    Zr12    Zr   0.23876   0.11903   0.41682   1.000
    Zr13    Zr   0.23876   0.61902   0.41682   1.000
    Zr14    Zr   0.73875   0.11903   0.41682   1.000
    Zr15    Zr   0.73875   0.61902   0.41682   1.000
    Zr16    Zr   0.38118   0.26124   0.08330   1.000
    Zr17    Zr   0.38118   0.76123   0.08330   1.000
    Zr18    Zr   0.88117   0.26124   0.08330   1.000
    Zr19    Zr   0.88117   0.76123   0.08330   1.000
    Zr20    Zr   0.38079   0.11952   0.74997   1.000
    Zr21    Zr   0.38079   0.61951   0.74997   1.000
    Zr22    Zr   0.88078   0.11952   0.74997   1.000
    Zr23    Zr   0.88078   0.61951   0.74997   1.000
    N24     N    0.82151   0.32150   0.00003   1.000
    O25     O    0.79046   0.33585   0.97922   1.000
    O26     O    0.84726   0.31394   0.03401   1.000
    O27     O    0.81378   0.34706   0.96602   1.000
    O28     O    0.83584   0.29044   0.02073   1.000
    N29     N    0.67848   0.99970   0.33352   1.000
    O30     O    0.68611   0.03286   0.36759   1.000
    O31     O    0.65291   0.96670   0.29944   1.000
    O32     O    0.66421   0.95448   0.31286   1.000
    O33     O    0.70948   0.04487   0.35414   1.000
    N34     N    0.01307   0.25618   0.91659   1.000
    O35     O    0.96389   0.20790   0.85146   1.000
    O36     O    0.96398   0.25536   0.98178   1.000
    N37     N    0.99974   0.67855   0.66646   1.000
    O38     O    0.04484   0.70953   0.64584   1.000
    O39     O    0.95458   0.66435   0.68711   1.000
    O40     O    0.03285   0.68610   0.63244   1.000
    O41     O    0.96674   0.65301   0.70056   1.000
    N42     N    0.67848   0.49971   0.33352   1.000
    O43     O    0.68611   0.53286   0.36759   1.000
    O44     O    0.65291   0.46671   0.29944   1.000
    O45     O    0.66421   0.45449   0.31286   1.000
    O46     O    0.70948   0.54487   0.35414   1.000
    N47     N    0.75610   0.01295   0.08333   1.000
    O48     O    0.80372   0.10713   0.08341   1.000
    O49     O    0.70772   0.96375   0.14848   1.000
    O50     O    0.75512   0.96379   0.01814   1.000
    N51     N    0.67836   0.67834   0.50006   1.000
    O52     O    0.68603   0.65276   0.46604   1.000
    O53     O    0.65267   0.68590   0.53403   1.000
    O54     O    0.70937   0.66399   0.47950   1.000
    O55     O    0.66405   0.70938   0.52066   1.000
    N56     N    0.32152   0.82149   0.00007   1.000
    O57     O    0.29048   0.83584   0.97924   1.000
    O58     O    0.31379   0.84705   0.96604   1.000
    O59     O    0.34728   0.81393   0.03403   1.000
    O60     O    0.33585   0.79043   0.02073   1.000
    N61     N    0.49973   0.67855   0.66646   1.000
    O62     O    0.54483   0.70953   0.64584   1.000
    O63     O    0.53284   0.68610   0.63244   1.000
    O64     O    0.45459   0.66435   0.68711   1.000
    O65     O    0.46675   0.65301   0.70056   1.000
    N66     N    0.50039   0.82148   0.16638   1.000
    O67     O    0.45528   0.79047   0.14576   1.000
    O68     O    0.54552   0.83569   0.18710   1.000
    O69     O    0.46728   0.81387   0.13235   1.000
    O70     O    0.53337   0.84707   0.20047   1.000
    N71     N    0.82140   0.50033   0.83355   1.000
    O72     O    0.84703   0.53338   0.79949   1.000
    O73     O    0.79037   0.45511   0.85416   1.000
    O74     O    0.83567   0.54556   0.81283   1.000
    O75     O    0.81371   0.46712   0.86765   1.000
    N76     N    0.99973   0.17856   0.66646   1.000
    O77     O    0.04484   0.20953   0.64583   1.000
    O78     O    0.95458   0.16436   0.68711   1.000
    O79     O    0.03285   0.18611   0.63243   1.000
    O80     O    0.96674   0.15302   0.70056   1.000
    N81     N    0.17837   0.17835   0.50005   1.000
    O82     O    0.20938   0.16400   0.47949   1.000
    O83     O    0.15268   0.18591   0.53400   1.000
    O84     O    0.18604   0.15276   0.46603   1.000
    O85     O    0.16406   0.20939   0.52065   1.000
    N86     N    0.32152   0.32150   0.00008   1.000
    O87     O    0.34728   0.31394   0.03404   1.000
    O88     O    0.31379   0.34706   0.96604   1.000
    O89     O    0.33585   0.29044   0.02076   1.000
    O90     O    0.29048   0.33585   0.97924   1.000
    N91     N    0.50039   0.32149   0.16638   1.000
    O92     O    0.45528   0.29048   0.14576   1.000
    O93     O    0.46728   0.31388   0.13235   1.000
    O94     O    0.53337   0.34708   0.20047   1.000
    O95     O    0.54552   0.33570   0.18710   1.000
    N96     N    0.00039   0.82148   0.16638   1.000
    O97     O    0.95527   0.79047   0.14576   1.000
    O98     O    0.96728   0.81387   0.13235   1.000
    O99     O    0.03338   0.84707   0.20047   1.000
    O100    O    0.04553   0.83569   0.18710   1.000
    N101    N    0.49973   0.17856   0.66646   1.000
    O102    O    0.54483   0.20953   0.64583   1.000
    O103    O    0.53284   0.18611   0.63243   1.000
    O104    O    0.46675   0.15302   0.70056   1.000
    O105    O    0.45459   0.16436   0.68711   1.000
    N106    N    0.17837   0.67834   0.50006   1.000
    O107    O    0.20939   0.66399   0.47949   1.000
    O108    O    0.18604   0.65276   0.46603   1.000
    O109    O    0.16406   0.70938   0.52066   1.000
    O110    O    0.15268   0.68590   0.53402   1.000
    N111    N    0.82151   0.82149   0.00004   1.000
    O112    O    0.79047   0.83584   0.97923   1.000
    O113    O    0.81378   0.84705   0.96602   1.000
    O114    O    0.84726   0.81393   0.03402   1.000
    O115    O    0.83584   0.79043   0.02074   1.000
    N116    N    0.48688   0.24378   0.41661   1.000
    O117    O    0.53602   0.24464   0.48178   1.000
    N118    N    0.00039   0.32149   0.16638   1.000
    O119    O    0.95527   0.29048   0.14576   1.000
    O120    O    0.96728   0.31388   0.13235   1.000
    O121    O    0.04552   0.33570   0.18710   1.000
    O122    O    0.03338   0.34708   0.20047   1.000
    N123    N    0.74382   0.25638   0.25000   1.000
    O124    O    0.74450   0.20787   0.31523   1.000
    O125    O    0.69654   0.30349   0.24997   1.000
    N126    N    0.32141   0.50033   0.83355   1.000
    O127    O    0.33569   0.54556   0.81283   1.000
    O128    O    0.34705   0.53338   0.79949   1.000
    O129    O    0.31372   0.46712   0.86764   1.000
    O130    O    0.29038   0.45511   0.85415   1.000
    N131    N    0.51308   0.75617   0.91658   1.000
    O132    O    0.46390   0.70789   0.85143   1.000
    O133    O    0.46398   0.75535   0.98178   1.000
    N134    N    0.48689   0.74377   0.41661   1.000
    O135    O    0.53602   0.74463   0.48178   1.000
    N136    N    0.98689   0.24378   0.41661   1.000
    O137    O    0.03602   0.24464   0.48178   1.000
    N138    N    0.01308   0.75617   0.91659   1.000
    O139    O    0.96398   0.75535   0.98178   1.000
    O140    O    0.96389   0.70789   0.85146   1.000
    N141    N    0.17849   0.99971   0.33352   1.000
    O142    O    0.15292   0.96670   0.29944   1.000
    O143    O    0.16422   0.95448   0.31286   1.000
    O144    O    0.20949   0.04487   0.35414   1.000
    O145    O    0.18612   0.03286   0.36759   1.000
    N146    N    0.17849   0.49970   0.33352   1.000
    O147    O    0.15292   0.46671   0.29944   1.000
    O148    O    0.16422   0.45449   0.31286   1.000
    O149    O    0.20949   0.54487   0.35414   1.000
    O150    O    0.18612   0.53286   0.36759   1.000
    N151    N    0.32141   0.00033   0.83355   1.000
    O152    O    0.29038   0.95511   0.85416   1.000
    O153    O    0.33569   0.04556   0.81283   1.000
    O154    O    0.34705   0.03338   0.79949   1.000
    O155    O    0.31372   0.96712   0.86765   1.000
    N156    N    0.67836   0.17835   0.50001   1.000
    O157    O    0.68603   0.15276   0.46601   1.000
    O158    O    0.70937   0.16400   0.47946   1.000
    O159    O    0.66405   0.20939   0.52063   1.000
    O160    O    0.65267   0.18591   0.53398   1.000
    N161    N    0.25611   0.51295   0.08332   1.000
    O162    O    0.30373   0.60713   0.08341   1.000
    O163    O    0.20773   0.46375   0.14848   1.000
    O164    O    0.25513   0.46380   0.01813   1.000
    N165    N    0.24394   0.48700   0.58340   1.000
    O166    O    0.24481   0.53610   0.51818   1.000
    N167    N    0.24394   0.98700   0.58340   1.000
    O168    O    0.24481   0.03611   0.51818   1.000
    N169    N    0.75610   0.51295   0.08333   1.000
    O170    O    0.75512   0.46380   0.01814   1.000
    O171    O    0.80372   0.60713   0.08341   1.000
    O172    O    0.70772   0.46375   0.14848   1.000
    N173    N    0.74393   0.48700   0.58339   1.000
    O174    O    0.74480   0.53610   0.51817   1.000
    N175    N    0.74382   0.75637   0.25000   1.000
    O176    O    0.74450   0.70786   0.31523   1.000
    O177    O    0.69654   0.80348   0.24997   1.000
    N178    N    0.98689   0.74377   0.41661   1.000
    O179    O    0.03602   0.74463   0.48178   1.000
    N180    N    0.74393   0.98700   0.58340   1.000
    O181    O    0.74480   0.03611   0.51818   1.000
    N182    N    0.25611   0.01295   0.08333   1.000
    O183    O    0.25513   0.96379   0.01814   1.000
    O184    O    0.30373   0.10713   0.08341   1.000
    O185    O    0.20773   0.96375   0.14848   1.000
    N186    N    0.75621   0.74365   0.75006   1.000
    O187    O    0.75543   0.79209   0.81526   1.000
    O188    O    0.80358   0.69667   0.74999   1.000
    O189    O    0.70758   0.74423   0.68487   1.000
    N190    N    0.51308   0.25618   0.91659   1.000
    O191    O    0.46398   0.25536   0.98178   1.000
    O192    O    0.46390   0.20790   0.85146   1.000
    N193    N    0.75621   0.24366   0.75005   1.000
    O194    O    0.70758   0.24424   0.68486   1.000
    O195    O    0.80358   0.19668   0.74998   1.000
    O196    O    0.75543   0.29210   0.81526   1.000
    N197    N    0.24383   0.25638   0.25000   1.000
    O198    O    0.19655   0.30349   0.24997   1.000
    O199    O    0.24451   0.20787   0.31523   1.000
    N200    N    0.25622   0.74365   0.75006   1.000
    O201    O    0.20759   0.74423   0.68487   1.000
    O202    O    0.30359   0.69667   0.74999   1.000
    O203    O    0.25544   0.79210   0.81526   1.000
    N204    N    0.82140   0.00033   0.83355   1.000
    O205    O    0.83567   0.04556   0.81282   1.000
    O206    O    0.84703   0.03338   0.79949   1.000
    O207    O    0.81371   0.96712   0.86764   1.000
    O208    O    0.79037   0.95511   0.85416   1.000
    N209    N    0.24383   0.75637   0.25000   1.000
    O210    O    0.19655   0.80348   0.24997   1.000
    O211    O    0.24451   0.70786   0.31524   1.000
    N212    N    0.25622   0.24366   0.75006   1.000
    O213    O    0.20759   0.24424   0.68487   1.000
    O214    O    0.30359   0.19668   0.74999   1.000
    O215    O    0.25544   0.29210   0.81525   1.000
loop_
    _geom_bond_atom_site_label_1
    _geom_bond_atom_site_label_2
    _geom_bond_distance
    _geom_bond_site_symmetry_2
    _ccdc_geom_bond_type
    N24    O25       1.04420  1_554   S
    Zr2    O25       2.06972      .   S
    N24    O26       1.04597      .   S
    Zr18   O26       2.07854      .   S
    N24    O27       1.04422  1_554   S
    Zr2    O27       2.07710      .   S
    N24    O28       1.04242      .   S
    Zr18   O28       2.07559      .   S
    N29    O30       1.04575  1_565   S
    Zr14   O30       2.07829      .   S
    N29    O31       1.04572      .   S
    Zr11   O31       2.07717      .   S
    N29    O32       1.04144      .   S
    Zr11   O32       2.07562      .   S
    N29    O33       1.04192  1_565   S
    Zr14   O33       2.07578      .   S
    N34    O35       1.87210  1_455   S
    Zr22   O35       3.06202      .   S
    N34    O36       1.87068  1_455   S
    Zr18   O36       3.05944  1_554   S
    N37    O38       1.04139  1_655   S
    Zr5    O38       2.07477      .   S
    N37    O39       1.04155      .   S
    Zr23   O39       2.07522      .   S
    N37    O40       1.04519  1_655   S
    Zr5    O40       2.07708      .   S
    N37    O41       1.04553      .   S
    Zr23   O41       2.07708      .   S
    N42    O43       1.04566      .   S
    Zr15   O43       2.07819      .   S
    N42    O44       1.04569      .   S
    Zr10   O44       2.07710      .   S
    N42    O45       1.04135      .   S
    Zr10   O45       2.07558      .   S
    N42    O46       1.04183      .   S
    Zr15   O46       2.07567      .   S
    N47    O48       1.89133      .   S
    Zr18   O48       3.09453      .   S
    N47    O49       1.87203  1_545   S
    Zr11   O49       3.06176      .   S
    N47    O50       1.86974  1_545   S
    Zr3    O50       3.05715  1_556   S
    N51    O52       1.04565      .   S
    Zr15   O52       2.07853      .   S
    N51    O53       1.04561      .   S
    Zr7    O53       2.07815      .   S
    N51    O54       1.04194      .   S
    Zr15   O54       2.07599      .   S
    N51    O55       1.04183      .   S
    Zr7    O55       2.07548      .   S
    N56    O57       1.04442  1_554   S
    Zr1    O57       2.07004      .   S
    N56    O58       1.04456  1_554   S
    Zr1    O58       2.07737      .   S
    N56    O59       1.04563      .   S
    Zr17   O59       2.07828      .   S
    N56    O60       1.04200      .   S
    Zr17   O60       2.07557      .   S
    N61    O62       1.04131      .   S
    Zr7    O62       2.07470      .   S
    N61    O63       1.04511      .   S
    Zr7    O63       2.07701      .   S
    N61    O64       1.04144      .   S
    Zr21   O64       2.07515      .   S
    N61    O65       1.04547      .   S
    Zr21   O65       2.07697      .   S
    N66    O67       1.04177      .   S
    Zr17   O67       2.07217      .   S
    N66    O68       1.04166      .   S
    Zr11   O68       2.07599      .   S
    N66    O69       1.04444      .   S
    Zr17   O69       2.07629      .   S
    N66    O70       1.04592      .   S
    Zr11   O70       2.07733      .   S
    N71    O72       1.04529      .   S
    Zr23   O72       2.07662      .   S
    N71    O73       1.04188      .   S
    Zr2    O73       2.07499      .   S
    N71    O74       1.04123      .   S
    Zr23   O74       2.07513      .   S
    N71    O75       1.04535      .   S
    Zr2    O75       2.07779      .   S
    N76    O77       1.04141  1_655   S
    Zr4    O77       2.07490      .   S
    N76    O78       1.04155      .   S
    Zr22   O78       2.07522      .   S
    N76    O79       1.04523  1_655   S
    Zr4    O79       2.07719      .   S
    N76    O80       1.04553      .   S
    Zr22   O80       2.07707      .   S
    N81    O82       1.04192      .   S
    Zr12   O82       2.07593      .   S
    N81    O83       1.04532      .   S
    Zr4    O83       2.07832      .   S
    N81    O84       1.04559      .   S
    Zr12   O84       2.07850      .   S
    N81    O85       1.04182      .   S
    Zr4    O85       2.07544      .   S
    N86    O87       1.04551      .   S
    Zr16   O87       2.07820      .   S
    N86    O88       1.04486  1_554   S
    Zr0    O88       2.07782      .   S
    N86    O89       1.04216      .   S
    Zr16   O89       2.07513      .   S
    N86    O90       1.04460  1_554   S
    Zr0    O90       2.07061      .   S
    N91    O92       1.04177      .   S
    Zr16   O92       2.07216      .   S
    N91    O93       1.04444      .   S
    Zr16   O93       2.07628      .   S
    N91    O94       1.04593      .   S
    Zr10   O94       2.07734      .   S
    N91    O95       1.04166      .   S
    Zr10   O95       2.07600      .   S
    N96    O97       1.04186  1_455   S
    Zr19   O97       2.07225      .   S
    N96    O98       1.04453  1_455   S
    Zr19   O98       2.07638      .   S
    N96    O99       1.04598      .   S
    Zr9    O99       2.07743      .   S
    N96    O100      1.04176      .   S
    Zr9    O100      2.07606      .   S
    N101   O102      1.04133      .   S
    Zr6    O102      2.07480      .   S
    N101   O103      1.04514      .   S
    Zr6    O103      2.07710      .   S
    N101   O104      1.04549      .   S
    Zr20   O104      2.07698      .   S
    N101   O105      1.04145      .   S
    Zr20   O105      2.07517      .   S
    N106   O107      1.04195      .   S
    Zr13   O107      2.07595      .   S
    N106   O108      1.04563      .   S
    Zr13   O108      2.07852      .   S
    N106   O109      1.04185      .   S
    Zr5    O109      2.07548      .   S
    N106   O110      1.04563      .   S
    Zr5    O110      2.07816      .   S
    N111   O112      1.04425  1_554   S
    Zr3    O112      2.06980      .   S
    N111   O113      1.04431  1_554   S
    Zr3    O113      2.07717      .   S
    N111   O114      1.04588      .   S
    Zr19   O114      2.07847      .   S
    N111   O115      1.04238      .   S
    Zr19   O115      2.07550      .   S
    N116   O117      1.86947      .   S
    Zr6    O117      3.05749      .   S
    N118   O119      1.04185  1_455   S
    Zr18   O119      2.07224      .   S
    N118   O120      1.04452  1_455   S
    Zr18   O120      2.07637      .   S
    N118   O121      1.04176      .   S
    Zr8    O121      2.07607      .   S
    N118   O122      1.04598      .   S
    Zr8    O122      2.07743      .   S
    N123   O124      1.87063      .   S
    Zr14   O124      3.05900      .   S
    N123   O125      1.89027      .   S
    Zr10   O125      3.09236      .   S
    N126   O127      1.04123      .   S
    Zr21   O127      2.07513      .   S
    N126   O128      1.04529      .   S
    Zr21   O128      2.07661      .   S
    N126   O129      1.04518      .   S
    Zr0    O129      2.07743      .   S
    N126   O130      1.04178      .   S
    Zr0    O130      2.07452      .   S
    N131   O132      1.87230      .   S
    Zr21   O132      3.06161      .   S
    N131   O133      1.87070      .   S
    Zr17   O133      3.05946  1_554   S
    N134   O135      1.86951      .   S
    Zr7    O135      3.05760      .   S
    N136   O137      1.86953  1_655   S
    Zr4    O137      3.05754      .   S
    N138   O139      1.87068  1_455   S
    Zr19   O139      3.05944  1_554   S
    N138   O140      1.87210  1_455   S
    Zr23   O140      3.06203      .   S
    N141   O142      1.04572      .   S
    Zr9    O142      2.07717      .   S
    N141   O143      1.04144      .   S
    Zr9    O143      2.07562      .   S
    N141   O144      1.04192  1_565   S
    Zr12   O144      2.07578      .   S
    N141   O145      1.04576  1_565   S
    Zr12   O145      2.07829      .   S
    N146   O147      1.04570      .   S
    Zr8    O147      2.07710      .   S
    N146   O148      1.04135      .   S
    Zr8    O148      2.07558      .   S
    N146   O149      1.04183      .   S
    Zr13   O149      2.07568      .   S
    N146   O150      1.04566      .   S
    Zr13   O150      2.07820      .   S
    N151   O152      1.04195  1_545   S
    Zr1    O152      2.07506      .   S
    N151   O153      1.04132      .   S
    Zr20   O153      2.07519      .   S
    N151   O154      1.04533      .   S
    Zr20   O154      2.07669      .   S
    N151   O155      1.04542  1_545   S
    Zr1    O155      2.07787      .   S
    N156   O157      1.04519      .   S
    Zr14   O157      2.07820      .   S
    N156   O158      1.04169      .   S
    Zr14   O158      2.07552      .   S
    N156   O159      1.04207      .   S
    Zr6    O159      2.07580      .   S
    N156   O160      1.04572      .   S
    Zr6    O160      2.07861      .   S
    N161   O162      1.89122      .   S
    Zr17   O162      3.09443      .   S
    N161   O163      1.87203      .   S
    Zr8    O163      3.06175      .   S
    N161   O164      1.86984      .   S
    Zr0    O164      3.05761  1_556   S
    N165   O166      1.86802      .   S
    Zr13   O166      3.05441      .   S
    N167   O168      1.86808  1_565   S
    Zr12   O168      3.05446      .   S
    N169   O170      1.86968      .   S
    Zr2    O170      3.05710  1_556   S
    N169   O171      1.89122      .   S
    Zr19   O171      3.09441      .   S
    N169   O172      1.87200      .   S
    Zr10   O172      3.06172      .   S
    N173   O174      1.86789      .   S
    Zr15   O174      3.05430      .   S
    N175   O176      1.87063      .   S
    Zr15   O176      3.05900      .   S
    N175   O177      1.89026      .   S
    Zr11   O177      3.09236      .   S
    N178   O179      1.86958  1_655   S
    Zr5    O179      3.05768      .   S
    N180   O181      1.86808  1_565   S
    Zr14   O181      3.05445      .   S
    N182   O183      1.86975  1_545   S
    Zr1    O183      3.05716  1_556   S
    N182   O184      1.89133      .   S
    Zr16   O184      3.09453      .   S
    N182   O185      1.87202  1_545   S
    Zr9    O185      3.06174      .   S
    N186   O187      1.87238      .   S
    Zr3    O187      3.06209      .   S
    N186   O188      1.88966      .   S
    Zr23   O188      3.09127      .   S
    N186   O189      1.87255      .   S
    Zr7    O189      3.06254      .   S
    N190   O191      1.87061      .   S
    Zr16   O191      3.05936  1_554   S
    N190   O192      1.87206      .   S
    Zr20   O192      3.06200      .   S
    N193   O194      1.87248      .   S
    Zr6    O194      3.06254      .   S
    N193   O195      1.88966      .   S
    Zr22   O195      3.09126      .   S
    N193   O196      1.87249      .   S
    Zr2    O196      3.06220      .   S
    N197   O198      1.89027      .   S
    Zr8    O198      3.09236      .   S
    N197   O199      1.87063      .   S
    Zr12   O199      3.05901      .   S
    N200   O201      1.87255      .   S
    Zr5    O201      3.06253      .   S
    N200   O202      1.88967      .   S
    Zr21   O202      3.09127      .   S
    N200   O203      1.87238      .   S
    Zr1    O203      3.06209      .   S
    N204   O205      1.04132      .   S
    Zr22   O205      2.07519      .   S
    N204   O206      1.04533      .   S
    Zr22   O206      2.07670      .   S
    N204   O207      1.04543  1_545   S
    Zr3    O207      2.07787      .   S
    N204   O208      1.04195  1_545   S
    Zr3    O208      2.07507      .   S
    N209   O210      1.89026      .   S
    Zr9    O210      3.09236      .   S
    N209   O211      1.87063      .   S
    Zr13   O211      3.05900      .   S
    N212   O213      1.87260      .   S
    Zr4    O213      3.06266      .   S
    N212   O214      1.88967      .   S
    Zr20   O214      3.09127      .   S
    N212   O215      1.87219      .   S
    Zr0    O215      3.06156      .   S
