# CIF file generated by openbabel 2.4.90, see http://openbabel.sf.net
data_I
_chemical_name_common ''
_cell_length_a 23.173
_cell_length_b 23.132
_cell_length_c 22.876
_cell_angle_alpha 89.923
_cell_angle_beta 90.038
_cell_angle_gamma 119.768
_space_group_name_H-M_alt 'P 1'
_space_group_name_Hall 'P 1'
loop_
    _symmetry_equiv_pos_as_xyz
    x,y,z
loop_
    _atom_site_label
    _atom_site_type_symbol
    _atom_site_fract_x
    _atom_site_fract_y
    _atom_site_fract_z
    _atom_site_occupancy
    C0      C    0.26104   0.38083   0.91680   1.000
    C1      C    0.26104   0.88082   0.91684   1.000
    C2      C    0.76103   0.38083   0.91684   1.000
    C3      C    0.76103   0.88082   0.91684   1.000
    C4      C    0.11890   0.23864   0.58320   1.000
    C5      C    0.11890   0.73863   0.58321   1.000
    C6      C    0.61889   0.23864   0.58320   1.000
    C7      C    0.61889   0.73863   0.58321   1.000
    C8      C    0.11929   0.38063   0.25002   1.000
    C9      C    0.11929   0.88062   0.25002   1.000
    C10     C    0.61928   0.38063   0.25002   1.000
    C11     C    0.61928   0.88062   0.25002   1.000
    C12     C    0.23876   0.11903   0.41682   1.000
    C13     C    0.23876   0.61902   0.41682   1.000
    C14     C    0.73875   0.11903   0.41682   1.000
    C15     C    0.73875   0.61902   0.41682   1.000
    C16     C    0.38118   0.26124   0.08330   1.000
    C17     C    0.38118   0.76123   0.08330   1.000
    C18     C    0.88117   0.26124   0.08330   1.000
    C19     C    0.88117   0.76123   0.08330   1.000
    C20     C    0.38079   0.11952   0.74997   1.000
    C21     C    0.38079   0.61951   0.74997   1.000
    C22     C    0.88078   0.11952   0.74997   1.000
    C23     C    0.88078   0.61951   0.74997   1.000
    C24     C    0.32329   0.32329   0.00020   1.000
    C25     C    0.32328   0.82328   0.00000   1.000
    C26     C    0.82327   0.32329   0.00000   1.000
    C27     C    0.82328   0.82328   0.00020   1.000
    C28     C    0.99973   0.17681   0.66645   1.000
    C29     C    0.99973   0.67680   0.66645   1.000
    C30     C    0.49972   0.17681   0.66640   1.000
    C31     C    0.49972   0.67680   0.66645   1.000
    C32     C    0.17671   0.99970   0.33357   1.000
    C33     C    0.17671   0.49970   0.33357   1.000
    C34     C    0.67670   0.99970   0.33357   1.000
    C35     C    0.67670   0.49970   0.33357   1.000
    C36     C    0.17653   0.17649   0.50008   1.000
    C37     C    0.17653   0.67648   0.50008   1.000
    C38     C    0.67652   0.17649   0.50008   1.000
    C39     C    0.67652   0.67648   0.50008   1.000
    C40     C    0.00047   0.32326   0.16635   1.000
    C41     C    0.00047   0.82325   0.16635   1.000
    C42     C    0.50046   0.32326   0.16635   1.000
    C43     C    0.50046   0.82325   0.16635   1.000
    C44     C    0.32312   0.00036   0.83361   1.000
    C45     C    0.32312   0.50035   0.83361   1.000
    C46     C    0.82311   0.00036   0.83361   1.000
    C47     C    0.82311   0.50035   0.83361   1.000
    C48     C    0.42773   0.41196   0.88901   1.000
    C49     C    0.42773   0.91195   0.88900   1.000
    C50     C    0.92772   0.41196   0.88900   1.000
    C51     C    0.92772   0.91195   0.88900   1.000
    C52     C    0.41049   0.33005   0.90890   1.000
    C53     C    0.41049   0.83004   0.90891   1.000
    C54     C    0.91048   0.33005   0.90891   1.000
    C55     C    0.91048   0.83004   0.90891   1.000
    C56     C    0.45194   0.39723   0.95939   1.000
    C57     C    0.45195   0.89722   0.95930   1.000
    C58     C    0.95194   0.39723   0.95938   1.000
    C59     C    0.95194   0.89722   0.95938   1.000
    C60     C    0.16185   0.27087   0.03134   1.000
    C61     C    0.16185   0.77086   0.03134   1.000
    C62     C    0.66184   0.27087   0.03134   1.000
    C63     C    0.66184   0.77086   0.03134   1.000
    C64     C    0.22315   0.31377   0.08657   1.000
    C65     C    0.22315   0.81376   0.08656   1.000
    C66     C    0.72314   0.31377   0.08656   1.000
    C67     C    0.72314   0.81376   0.08656   1.000
    C68     C    0.21263   0.23764   0.05697   1.000
    C69     C    0.21263   0.73763   0.05697   1.000
    C70     C    0.71262   0.23764   0.05697   1.000
    C71     C    0.71262   0.73763   0.05697   1.000
    C72     C    0.48373   0.07196   0.55536   1.000
    C73     C    0.48373   0.57195   0.55536   1.000
    C74     C    0.98372   0.07196   0.55536   1.000
    C75     C    0.98372   0.57195   0.55536   1.000
    C76     C    0.41949   0.08964   0.57560   1.000
    C77     C    0.41949   0.58963   0.57560   1.000
    C78     C    0.91948   0.08964   0.57560   1.000
    C79     C    0.91948   0.58963   0.57560   1.000
    C80     C    0.44531   0.04772   0.62584   1.000
    C81     C    0.44531   0.54771   0.62584   1.000
    C82     C    0.94530   0.04772   0.62584   1.000
    C83     C    0.94530   0.54771   0.62584   1.000
    C84     C    0.10865   0.33834   0.69771   1.000
    C85     C    0.10866   0.83833   0.69771   1.000
    C86     C    0.60864   0.33834   0.69771   1.000
    C87     C    0.60864   0.83833   0.69771   1.000
    C88     C    0.09012   0.27646   0.75269   1.000
    C89     C    0.09012   0.77645   0.75269   1.000
    C90     C    0.59011   0.27646   0.75269   1.000
    C91     C    0.59011   0.77645   0.75269   1.000
    C92     C    0.02503   0.28806   0.72342   1.000
    C93     C    0.02503   0.78805   0.72342   1.000
    C94     C    0.52502   0.28806   0.72342   1.000
    C95     C    0.52502   0.78805   0.72342   1.000
    C96     C    0.08808   0.01667   0.22259   1.000
    C97     C    0.08808   0.51666   0.22259   1.000
    C98     C    0.58807   0.01667   0.22259   1.000
    C99     C    0.58807   0.51666   0.22259   1.000
    C100    C    0.16976   0.08062   0.24268   1.000
    C101    C    0.16976   0.58062   0.24268   1.000
    C102    C    0.66975   0.08062   0.24268   1.000
    C103    C    0.66975   0.58062   0.24268   1.000
    C104    C    0.10255   0.05516   0.29306   1.000
    C105    C    0.10255   0.55515   0.29306   1.000
    C106    C    0.60254   0.05516   0.29306   1.000
    C107    C    0.60254   0.55515   0.29306   1.000
    C108    C    0.22923   0.39002   0.36442   1.000
    C109    C    0.22923   0.89001   0.36442   1.000
    C110    C    0.72922   0.39002   0.36442   1.000
    C111    C    0.72922   0.89001   0.36442   1.000
    C112    C    0.18625   0.40850   0.41970   1.000
    C113    C    0.18625   0.90849   0.41970   1.000
    C114    C    0.68624   0.40850   0.41970   1.000
    C115    C    0.68624   0.90849   0.41970   1.000
    C116    C    0.26229   0.47374   0.39023   1.000
    C117    C    0.26229   0.97373   0.39023   1.000
    C118    C    0.76228   0.47374   0.39023   1.000
    C119    C    0.76228   0.97373   0.39023   1.000
    C120    C    0.07207   0.08805   0.38894   1.000
    C121    C    0.07208   0.58805   0.38894   1.000
    C122    C    0.57206   0.08805   0.38894   1.000
    C123    C    0.57207   0.58805   0.38895   1.000
    C124    C    0.08945   0.16996   0.40883   1.000
    C125    C    0.08945   0.66995   0.40883   1.000
    C126    C    0.58943   0.16996   0.40880   1.000
    C127    C    0.58944   0.66995   0.40883   1.000
    C128    C    0.04780   0.10265   0.45928   1.000
    C129    C    0.04781   0.60264   0.45928   1.000
    C130    C    0.54779   0.10265   0.45920   1.000
    C131    C    0.54780   0.60264   0.45928   1.000
    C132    C    0.33801   0.22899   0.53120   1.000
    C133    C    0.33801   0.72898   0.53120   1.000
    C134    C    0.83800   0.22899   0.53120   1.000
    C135    C    0.83800   0.72898   0.53121   1.000
    C136    C    0.27669   0.18600   0.58644   1.000
    C137    C    0.27669   0.68599   0.58645   1.000
    C138    C    0.77668   0.18600   0.58644   1.000
    C139    C    0.77668   0.68599   0.58645   1.000
    C140    C    0.28718   0.26214   0.55673   1.000
    C141    C    0.28719   0.76213   0.55673   1.000
    C142    C    0.78717   0.26214   0.55673   1.000
    C143    C    0.78717   0.76213   0.55673   1.000
    C144    C    0.01627   0.42817   0.05511   1.000
    C145    C    0.01627   0.92816   0.05511   1.000
    C146    C    0.51626   0.42817   0.05511   1.000
    C147    C    0.51626   0.92816   0.05511   1.000
    C148    C    0.08068   0.41070   0.07535   1.000
    C149    C    0.08068   0.91069   0.07535   1.000
    C150    C    0.58067   0.41070   0.07535   1.000
    C151    C    0.58067   0.91069   0.07535   1.000
    C152    C    0.05464   0.45228   0.12561   1.000
    C153    C    0.05465   0.95227   0.12561   1.000
    C154    C    0.55463   0.45228   0.12561   1.000
    C155    C    0.55464   0.95227   0.12561   1.000
    C156    C    0.39158   0.16168   0.19787   1.000
    C157    C    0.39158   0.66167   0.19787   1.000
    C158    C    0.89157   0.16168   0.19787   1.000
    C159    C    0.89157   0.66167   0.19787   1.000
    C160    C    0.41002   0.22345   0.25278   1.000
    C161    C    0.41002   0.72344   0.25278   1.000
    C162    C    0.91000   0.22345   0.25278   1.000
    C163    C    0.91000   0.72344   0.25278   1.000
    C164    C    0.47518   0.21201   0.22360   1.000
    C165    C    0.47518   0.71200   0.22360   1.000
    C166    C    0.97517   0.21201   0.22360   1.000
    C167    C    0.97517   0.71200   0.22360   1.000
    C168    C    0.41187   0.48356   0.72280   1.000
    C169    C    0.41187   0.98355   0.72280   1.000
    C170    C    0.91186   0.48356   0.72280   1.000
    C171    C    0.91186   0.98355   0.72280   1.000
    C172    C    0.33015   0.41961   0.74288   1.000
    C173    C    0.33016   0.91960   0.74288   1.000
    C174    C    0.83015   0.41961   0.74288   1.000
    C175    C    0.83015   0.91960   0.74288   1.000
    C176    C    0.39735   0.44492   0.79320   1.000
    C177    C    0.39735   0.94491   0.79320   1.000
    C178    C    0.89734   0.44492   0.79320   1.000
    C179    C    0.89734   0.94491   0.79320   1.000
    C180    C    0.27081   0.11014   0.86435   1.000
    C181    C    0.27081   0.61013   0.86435   1.000
    C182    C    0.77080   0.11014   0.86435   1.000
    C183    C    0.77080   0.61013   0.86435   1.000
    C184    C    0.31382   0.09143   0.91955   1.000
    C185    C    0.31382   0.59142   0.91955   1.000
    C186    C    0.81381   0.09143   0.91955   1.000
    C187    C    0.81381   0.59142   0.91955   1.000
    C188    C    0.23762   0.02636   0.89024   1.000
    C189    C    0.23762   0.52635   0.89024   1.000
    C190    C    0.73761   0.02636   0.89024   1.000
    C191    C    0.73761   0.52635   0.89024   1.000
    C192    C    0.01637   0.08786   0.77746   1.000
    C193    C    0.01638   0.58785   0.77746   1.000
    C194    C    0.51636   0.08786   0.77746   1.000
    C195    C    0.51636   0.58785   0.77746   1.000
    C196    C    0.08035   0.16964   0.75733   1.000
    C197    C    0.08035   0.66963   0.75733   1.000
    C198    C    0.58034   0.16964   0.75733   1.000
    C199    C    0.58034   0.66963   0.75733   1.000
    C200    C    0.05482   0.10234   0.70697   1.000
    C201    C    0.05482   0.60233   0.70697   1.000
    C202    C    0.55481   0.10234   0.70697   1.000
    C203    C    0.55481   0.60233   0.70697   1.000
    C204    C    0.39037   0.22955   0.63542   1.000
    C205    C    0.39037   0.72954   0.63542   1.000
    C206    C    0.89036   0.22955   0.63542   1.000
    C207    C    0.89036   0.72954   0.63542   1.000
    C208    C    0.40880   0.18640   0.58022   1.000
    C209    C    0.40880   0.68639   0.58022   1.000
    C210    C    0.90879   0.18640   0.58022   1.000
    C211    C    0.90879   0.68639   0.58022   1.000
    C212    C    0.47395   0.26258   0.60957   1.000
    C213    C    0.47395   0.76257   0.60957   1.000
    C214    C    0.97394   0.26258   0.60957   1.000
    C215    C    0.97394   0.76257   0.60957   1.000
    C216    C    0.41207   0.42818   0.11100   1.000
    C217    C    0.41207   0.92817   0.11100   1.000
    C218    C    0.91206   0.42818   0.11000   1.000
    C219    C    0.91206   0.92817   0.11000   1.000
    C220    C    0.33024   0.41067   0.09111   1.000
    C221    C    0.33024   0.91066   0.09111   1.000
    C222    C    0.83023   0.41067   0.09111   1.000
    C223    C    0.83023   0.91066   0.09111   1.000
    C224    C    0.39734   0.45250   0.04060   1.000
    C225    C    0.39734   0.95249   0.04065   1.000
    C226    C    0.89733   0.45250   0.04065   1.000
    C227    C    0.89733   0.95249   0.04065   1.000
    C228    C    0.27099   0.16153   0.96910   1.000
    C229    C    0.27099   0.66152   0.96910   1.000
    C230    C    0.77098   0.16153   0.96910   1.000
    C231    C    0.77098   0.66152   0.96910   1.000
    C232    C    0.31409   0.22328   0.91411   1.000
    C233    C    0.31409   0.72327   0.91411   1.000
    C234    C    0.81408   0.22328   0.91411   1.000
    C235    C    0.81408   0.72327   0.91411   1.000
    C236    C    0.23782   0.21238   0.94340   1.000
    C237    C    0.23782   0.71237   0.94340   1.000
    C238    C    0.73781   0.21238   0.94340   1.000
    C239    C    0.73781   0.71237   0.94340   1.000
    C240    C    0.07208   0.48368   0.44473   1.000
    C241    C    0.07208   0.98367   0.44473   1.000
    C242    C    0.57207   0.48368   0.44473   1.000
    C243    C    0.57207   0.98367   0.44473   1.000
    C244    C    0.08960   0.41926   0.42446   1.000
    C245    C    0.08960   0.91925   0.42446   1.000
    C246    C    0.58959   0.41926   0.42446   1.000
    C247    C    0.58959   0.91925   0.42446   1.000
    C248    C    0.04793   0.44533   0.37424   1.000
    C249    C    0.04793   0.94532   0.37424   1.000
    C250    C    0.54792   0.44533   0.37424   1.000
    C251    C    0.54792   0.94532   0.37424   1.000
    C252    C    0.33805   0.10858   0.30221   1.000
    C253    C    0.33805   0.60857   0.30221   1.000
    C254    C    0.83804   0.10858   0.30221   1.000
    C255    C    0.83804   0.60857   0.30221   1.000
    C256    C    0.27640   0.09020   0.24721   1.000
    C257    C    0.27640   0.59019   0.24721   1.000
    C258    C    0.77638   0.09020   0.24721   1.000
    C259    C    0.77639   0.59019   0.24721   1.000
    C260    C    0.28770   0.02484   0.27650   1.000
    C261    C    0.28770   0.52483   0.27657   1.000
    C262    C    0.78769   0.02484   0.27650   1.000
    C263    C    0.78769   0.52483   0.27657   1.000
    C264    C    0.48364   0.41200   0.27720   1.000
    C265    C    0.48364   0.91199   0.27720   1.000
    C266    C    0.98363   0.41200   0.27720   1.000
    C267    C    0.98363   0.91199   0.27720   1.000
    C268    C    0.41981   0.33018   0.25709   1.000
    C269    C    0.41981   0.83017   0.25709   1.000
    C270    C    0.91980   0.33018   0.25709   1.000
    C271    C    0.91980   0.83017   0.25709   1.000
    C272    C    0.44516   0.39759   0.20672   1.000
    C273    C    0.44516   0.89758   0.20672   1.000
    C274    C    0.94514   0.39759   0.20672   1.000
    C275    C    0.94515   0.89758   0.20672   1.000
    C276    C    0.10985   0.27062   0.13555   1.000
    C277    C    0.10985   0.77061   0.13555   1.000
    C278    C    0.60984   0.27062   0.13555   1.000
    C279    C    0.60984   0.77061   0.13555   1.000
    C280    C    0.09132   0.31381   0.08032   1.000
    C281    C    0.09132   0.81380   0.08032   1.000
    C282    C    0.59131   0.31381   0.08032   1.000
    C283    C    0.59131   0.81380   0.08032   1.000
    C284    C    0.02625   0.23753   0.10972   1.000
    C285    C    0.02625   0.73752   0.10972   1.000
    C286    C    0.52624   0.23753   0.10972   1.000
    C287    C    0.52624   0.73752   0.10972   1.000
    C288    C    0.08790   0.07162   0.61111   1.000
    C289    C    0.08790   0.57161   0.61111   1.000
    C290    C    0.58789   0.07162   0.61111   1.000
    C291    C    0.58789   0.57161   0.61110   1.000
    C292    C    0.16970   0.08910   0.59123   1.000
    C293    C    0.16970   0.58909   0.59123   1.000
    C294    C    0.66969   0.08910   0.59123   1.000
    C295    C    0.66968   0.58909   0.59123   1.000
    C296    C    0.10255   0.04731   0.54080   1.000
    C297    C    0.10255   0.54730   0.54083   1.000
    C298    C    0.60254   0.04731   0.54082   1.000
    C299    C    0.60254   0.54729   0.54083   1.000
    C300    C    0.22910   0.33835   0.46889   1.000
    C301    C    0.22910   0.83834   0.46890   1.000
    C302    C    0.72909   0.33835   0.46889   1.000
    C303    C    0.72909   0.83834   0.46890   1.000
    C304    C    0.18605   0.27682   0.41383   1.000
    C305    C    0.18605   0.77681   0.41380   1.000
    C306    C    0.68604   0.27683   0.41383   1.000
    C307    C    0.68604   0.77681   0.41384   1.000
    C308    C    0.26214   0.28741   0.44332   1.000
    C309    C    0.26215   0.78740   0.44332   1.000
    C310    C    0.76213   0.28741   0.44332   1.000
    C311    C    0.76213   0.78740   0.44333   1.000
    C312    C    0.42776   0.01607   0.94478   1.000
    C313    C    0.42776   0.51606   0.94478   1.000
    C314    C    0.92775   0.01607   0.94478   1.000
    C315    C    0.92775   0.51606   0.94478   1.000
    C316    C    0.41041   0.08066   0.92450   1.000
    C317    C    0.41041   0.58065   0.92450   1.000
    C318    C    0.91040   0.08066   0.92450   1.000
    C319    C    0.91040   0.58065   0.92450   1.000
    C320    C    0.45185   0.05449   0.87423   1.000
    C321    C    0.45185   0.55448   0.87423   1.000
    C322    C    0.95184   0.05449   0.87423   1.000
    C323    C    0.95184   0.55448   0.87423   1.000
    C324    C    0.16185   0.39147   0.80214   1.000
    C325    C    0.16185   0.89146   0.80214   1.000
    C326    C    0.66184   0.39147   0.80214   1.000
    C327    C    0.66184   0.89146   0.80214   1.000
    C328    C    0.22356   0.40994   0.74722   1.000
    C329    C    0.22356   0.90993   0.74722   1.000
    C330    C    0.72355   0.40994   0.74722   1.000
    C331    C    0.72355   0.90993   0.74720   1.000
    C332    C    0.21222   0.47525   0.77643   1.000
    C333    C    0.21222   0.97524   0.77643   1.000
    C334    C    0.71221   0.47525   0.77643   1.000
    C335    C    0.71221   0.97524   0.77643   1.000
    C336    C    0.47823   0.25213   0.96779   1.000
    C337    C    0.47823   0.75212   0.96779   1.000
    C338    C    0.97822   0.25213   0.96779   1.000
    C339    C    0.97822   0.75212   0.96779   1.000
    C340    C    0.41333   0.37623   0.92522   1.000
    C341    C    0.41334   0.87622   0.92522   1.000
    C342    C    0.91332   0.37623   0.92522   1.000
    C343    C    0.91333   0.87622   0.92522   1.000
    C344    C    0.21176   0.28365   0.04645   1.000
    C345    C    0.21176   0.78364   0.04645   1.000
    C346    C    0.71175   0.28365   0.04645   1.000
    C347    C    0.71175   0.78364   0.04645   1.000
    C348    C    0.27499   0.02193   0.63457   1.000
    C349    C    0.27499   0.52193   0.63457   1.000
    C350    C    0.77498   0.02194   0.63457   1.000
    C351    C    0.77498   0.52193   0.63457   1.000
    C352    C    0.46270   0.08648   0.59170   1.000
    C353    C    0.46270   0.58647   0.59170   1.000
    C354    C    0.96269   0.08648   0.59170   1.000
    C355    C    0.96269   0.58647   0.59170   1.000
    C356    C    0.07150   0.28841   0.71271   1.000
    C357    C    0.07150   0.78840   0.71271   1.000
    C358    C    0.57149   0.28841   0.71271   1.000
    C359    C    0.57149   0.78840   0.71271   1.000
    C360    C    0.24761   0.22523   0.30119   1.000
    C361    C    0.24762   0.72522   0.30119   1.000
    C362    C    0.74760   0.22523   0.30119   1.000
    C363    C    0.74760   0.72522   0.30119   1.000
    C364    C    0.12363   0.03753   0.25887   1.000
    C365    C    0.12363   0.53752   0.25887   1.000
    C366    C    0.62362   0.03753   0.25887   1.000
    C367    C    0.62362   0.53752   0.25887   1.000
    C368    C    0.21640   0.42723   0.37962   1.000
    C369    C    0.21640   0.92722   0.37962   1.000
    C370    C    0.71639   0.42723   0.37962   1.000
    C371    C    0.71639   0.92722   0.37962   1.000
    C372    C    0.02173   0.24793   0.46785   1.000
    C373    C    0.02174   0.74792   0.46785   1.000
    C374    C    0.52172   0.24793   0.46785   1.000
    C375    C    0.52173   0.74792   0.46785   1.000
    C376    C    0.08647   0.12369   0.42516   1.000
    C377    C    0.08647   0.62368   0.42516   1.000
    C378    C    0.58646   0.12369   0.42515   1.000
    C379    C    0.58647   0.62368   0.42516   1.000
    C380    C    0.28808   0.21616   0.54629   1.000
    C381    C    0.28808   0.71615   0.54629   1.000
    C382    C    0.78807   0.21616   0.54628   1.000
    C383    C    0.78807   0.71614   0.54629   1.000
    C384    C    0.22494   0.47807   0.13445   1.000
    C385    C    0.22494   0.97806   0.13445   1.000
    C386    C    0.72493   0.47807   0.13445   1.000
    C387    C    0.72493   0.97806   0.13445   1.000
    C388    C    0.03738   0.41363   0.09145   1.000
    C389    C    0.03738   0.91363   0.09145   1.000
    C390    C    0.53737   0.41364   0.09145   1.000
    C391    C    0.53737   0.91363   0.09145   1.000
    C392    C    0.42868   0.21161   0.21284   1.000
    C393    C    0.42868   0.71160   0.21284   1.000
    C394    C    0.92867   0.21161   0.21284   1.000
    C395    C    0.92867   0.71160   0.21284   1.000
    C396    C    0.25236   0.27478   0.80125   1.000
    C397    C    0.25236   0.77477   0.80125   1.000
    C398    C    0.75235   0.27478   0.80125   1.000
    C399    C    0.75235   0.77477   0.80125   1.000
    C400    C    0.37631   0.46265   0.75906   1.000
    C401    C    0.37631   0.96264   0.75906   1.000
    C402    C    0.87630   0.46265   0.75906   1.000
    C403    C    0.87630   0.96264   0.75906   1.000
    C404    C    0.28355   0.07282   0.87953   1.000
    C405    C    0.28355   0.57281   0.87953   1.000
    C406    C    0.78354   0.07282   0.87953   1.000
    C407    C    0.78354   0.57281   0.87953   1.000
    C408    C    0.22480   0.24722   0.69897   1.000
    C409    C    0.22480   0.74721   0.69897   1.000
    C410    C    0.72479   0.24722   0.69897   1.000
    C411    C    0.72479   0.74721   0.69897   1.000
    C412    C    0.03727   0.12349   0.74117   1.000
    C413    C    0.03727   0.62348   0.74117   1.000
    C414    C    0.53726   0.12349   0.74117   1.000
    C415    C    0.53726   0.62348   0.74117   1.000
    C416    C    0.42749   0.21664   0.62025   1.000
    C417    C    0.42750   0.71663   0.62025   1.000
    C418    C    0.92748   0.21664   0.62025   1.000
    C419    C    0.92749   0.71663   0.62025   1.000
    C420    C    0.25178   0.47808   0.03200   1.000
    C421    C    0.25178   0.97807   0.03202   1.000
    C422    C    0.75177   0.47808   0.03202   1.000
    C423    C    0.75177   0.97807   0.03202   1.000
    C424    C    0.37643   0.41373   0.07479   1.000
    C425    C    0.37643   0.91372   0.07479   1.000
    C426    C    0.87642   0.41373   0.07479   1.000
    C427    C    0.87642   0.91372   0.07479   1.000
    C428    C    0.28374   0.21158   0.95410   1.000
    C429    C    0.28374   0.71157   0.95410   1.000
    C430    C    0.78373   0.21158   0.95410   1.000
    C431    C    0.78373   0.71157   0.95410   1.000
    C432    C    0.02168   0.27473   0.36541   1.000
    C433    C    0.02168   0.77472   0.36541   1.000
    C434    C    0.52167   0.27473   0.36541   1.000
    C435    C    0.52167   0.77472   0.36541   1.000
    C436    C    0.08657   0.46262   0.40838   1.000
    C437    C    0.08657   0.96261   0.40838   1.000
    C438    C    0.58656   0.46262   0.40838   1.000
    C439    C    0.58656   0.96261   0.40838   1.000
    C440    C    0.28819   0.07147   0.28722   1.000
    C441    C    0.28819   0.57146   0.28722   1.000
    C442    C    0.78818   0.07147   0.28722   1.000
    C443    C    0.78818   0.57146   0.28722   1.000
    C444    C    0.27512   0.25265   0.19887   1.000
    C445    C    0.27512   0.75264   0.19887   1.000
    C446    C    0.77511   0.25265   0.19887   1.000
    C447    C    0.77511   0.75264   0.19887   1.000
    C448    C    0.46280   0.37644   0.24092   1.000
    C449    C    0.46280   0.87643   0.24092   1.000
    C450    C    0.96279   0.37644   0.24092   1.000
    C451    C    0.96279   0.87643   0.24092   1.000
    C452    C    0.07268   0.28349   0.12037   1.000
    C453    C    0.07268   0.78348   0.12037   1.000
    C454    C    0.57267   0.28349   0.12037   1.000
    C455    C    0.57267   0.78348   0.12037   1.000
    C456    C    0.24818   0.02185   0.53210   1.000
    C457    C    0.24819   0.52184   0.53210   1.000
    C458    C    0.74817   0.02185   0.53210   1.000
    C459    C    0.74818   0.52184   0.53200   1.000
    C460    C    0.12350   0.08607   0.57489   1.000
    C461    C    0.12350   0.58606   0.57489   1.000
    C462    C    0.62349   0.08607   0.57489   1.000
    C463    C    0.62349   0.58606   0.57489   1.000
    C464    C    0.21626   0.28831   0.45390   1.000
    C465    C    0.21626   0.78830   0.45390   1.000
    C466    C    0.71625   0.28831   0.45300   1.000
    C467    C    0.71625   0.78830   0.45390   1.000
    C468    C    0.47830   0.22516   0.86540   1.000
    C469    C    0.47830   0.72516   0.86540   1.000
    C470    C    0.97829   0.22516   0.86540   1.000
    C471    C    0.97829   0.72516   0.86540   1.000
    C472    C    0.41328   0.03724   0.90843   1.000
    C473    C    0.41328   0.53723   0.90843   1.000
    C474    C    0.91327   0.03724   0.90843   1.000
    C475    C    0.91327   0.53723   0.90843   1.000
    C476    C    0.21173   0.42860   0.78717   1.000
    C477    C    0.21173   0.92860   0.78717   1.000
    C478    C    0.71172   0.42861   0.78717   1.000
    C479    C    0.71172   0.92860   0.78717   1.000
    C480    C    0.01335   0.25626   0.91658   1.000
    C481    C    0.01335   0.75625   0.91658   1.000
    C482    C    0.51334   0.25626   0.91658   1.000
    C483    C    0.51334   0.75626   0.91658   1.000
    C484    C    0.08308   0.29139   0.91654   1.000
    C485    C    0.08308   0.79138   0.91654   1.000
    C486    C    0.58306   0.29139   0.91654   1.000
    C487    C    0.58307   0.79138   0.91654   1.000
    C488    C    0.24390   0.48676   0.58346   1.000
    C489    C    0.24390   0.98675   0.58346   1.000
    C490    C    0.74389   0.48676   0.58346   1.000
    C491    C    0.74389   0.98675   0.58346   1.000
    C492    C    0.20856   0.41691   0.58363   1.000
    C493    C    0.20856   0.91691   0.58363   1.000
    C494    C    0.70855   0.41691   0.58363   1.000
    C495    C    0.70854   0.91691   0.58363   1.000
    C496    C    0.24374   0.25648   0.24995   1.000
    C497    C    0.24374   0.75647   0.24995   1.000
    C498    C    0.74373   0.25648   0.24995   1.000
    C499    C    0.74373   0.75647   0.24995   1.000
    C500    C    0.20863   0.29139   0.24987   1.000
    C501    C    0.20863   0.79138   0.24987   1.000
    C502    C    0.70862   0.29139   0.24987   1.000
    C503    C    0.70862   0.79138   0.24987   1.000
    C504    C    0.48659   0.24369   0.41660   1.000
    C505    C    0.48659   0.74368   0.41660   1.000
    C506    C    0.98658   0.24369   0.41660   1.000
    C507    C    0.98658   0.74369   0.41660   1.000
    C508    C    0.41686   0.20855   0.41655   1.000
    C509    C    0.41686   0.70854   0.41655   1.000
    C510    C    0.91685   0.20855   0.41655   1.000
    C511    C    0.91685   0.70854   0.41655   1.000
    C512    C    0.25617   0.01318   0.08331   1.000
    C513    C    0.25616   0.51317   0.08330   1.000
    C514    C    0.75615   0.01318   0.08330   1.000
    C515    C    0.75616   0.51317   0.08330   1.000
    C516    C    0.29172   0.08302   0.08350   1.000
    C517    C    0.29172   0.58301   0.08350   1.000
    C518    C    0.79171   0.08302   0.08350   1.000
    C519    C    0.79171   0.58301   0.08350   1.000
    C520    C    0.25631   0.24360   0.75008   1.000
    C521    C    0.25631   0.74359   0.75008   1.000
    C522    C    0.75630   0.24360   0.75008   1.000
    C523    C    0.75630   0.74359   0.75008   1.000
    C524    C    0.29162   0.20889   0.74999   1.000
    C525    C    0.29162   0.70888   0.74999   1.000
    C526    C    0.79161   0.20889   0.74990   1.000
    C527    C    0.79161   0.70888   0.74999   1.000
    C528    C    0.44860   0.24783   0.01064   1.000
    C529    C    0.44860   0.74782   0.01064   1.000
    C530    C    0.94859   0.24783   0.01064   1.000
    C531    C    0.94859   0.74782   0.01064   1.000
    C532    C    0.30043   0.05167   0.67729   1.000
    C533    C    0.30043   0.55166   0.67729   1.000
    C534    C    0.80042   0.05167   0.67729   1.000
    C535    C    0.80042   0.55166   0.67729   1.000
    C536    C    0.25162   0.19971   0.34412   1.000
    C537    C    0.25163   0.69970   0.34412   1.000
    C538    C    0.75161   0.19971   0.34412   1.000
    C539    C    0.75161   0.69970   0.34412   1.000
    C540    C    0.05141   0.25235   0.51071   1.000
    C541    C    0.05141   0.75234   0.51071   1.000
    C542    C    0.55140   0.25235   0.51071   1.000
    C543    C    0.55141   0.75234   0.51071   1.000
    C544    C    0.19941   0.44847   0.17725   1.000
    C545    C    0.19941   0.94846   0.17725   1.000
    C546    C    0.69940   0.44847   0.17725   1.000
    C547    C    0.69940   0.94846   0.17725   1.000
    C548    C    0.24828   0.30027   0.84410   1.000
    C549    C    0.24828   0.80026   0.84410   1.000
    C550    C    0.74827   0.30027   0.84410   1.000
    C551    C    0.74827   0.80026   0.84410   1.000
    C552    C    0.19903   0.25099   0.65615   1.000
    C553    C    0.19903   0.75098   0.65615   1.000
    C554    C    0.69902   0.25099   0.65615   1.000
    C555    C    0.69902   0.75098   0.65615   1.000
    C556    C    0.24725   0.44846   0.98907   1.000
    C557    C    0.24725   0.94845   0.98907   1.000
    C558    C    0.74724   0.44846   0.98907   1.000
    C559    C    0.74725   0.94845   0.98907   1.000
    C560    C    0.05138   0.30010   0.32262   1.000
    C561    C    0.05138   0.80009   0.32262   1.000
    C562    C    0.55137   0.30010   0.32262   1.000
    C563    C    0.55137   0.80009   0.32262   1.000
    C564    C    0.30080   0.24863   0.15614   1.000
    C565    C    0.30080   0.74862   0.15614   1.000
    C566    C    0.80079   0.24863   0.15614   1.000
    C567    C    0.80079   0.74862   0.15614   1.000
    C568    C    0.25261   0.05139   0.48908   1.000
    C569    C    0.25261   0.55138   0.48908   1.000
    C570    C    0.75259   0.05139   0.48908   1.000
    C571    C    0.75260   0.55138   0.48908   1.000
    C572    C    0.44866   0.19972   0.82267   1.000
    C573    C    0.44866   0.69971   0.82260   1.000
    C574    C    0.94865   0.19972   0.82267   1.000
    C575    C    0.94865   0.69971   0.82267   1.000
    C576    C    0.14136   0.32077   0.91652   1.000
    C577    C    0.14136   0.82077   0.91652   1.000
    C578    C    0.64135   0.32078   0.91652   1.000
    C579    C    0.64135   0.82077   0.91652   1.000
    C580    C    0.17894   0.35853   0.58369   1.000
    C581    C    0.17894   0.85852   0.58369   1.000
    C582    C    0.67893   0.35853   0.58369   1.000
    C583    C    0.67893   0.85853   0.58369   1.000
    C584    C    0.17927   0.32056   0.24986   1.000
    C585    C    0.17927   0.82055   0.24986   1.000
    C586    C    0.67926   0.32056   0.24986   1.000
    C587    C    0.67926   0.82055   0.24986   1.000
    C588    C    0.35858   0.17914   0.41652   1.000
    C589    C    0.35858   0.67914   0.41652   1.000
    C590    C    0.85857   0.17914   0.41652   1.000
    C591    C    0.85857   0.67914   0.41652   1.000
    C592    C    0.32151   0.14140   0.08369   1.000
    C593    C    0.32151   0.64139   0.08369   1.000
    C594    C    0.82149   0.14140   0.08369   1.000
    C595    C    0.82149   0.64139   0.08369   1.000
    C596    C    0.32114   0.17987   0.74987   1.000
    C597    C    0.32114   0.67986   0.74987   1.000
    C598    C    0.82113   0.17987   0.74987   1.000
    C599    C    0.82113   0.67986   0.74987   1.000
    C600    C    0.35109   0.36439   0.94718   1.000
    C601    C    0.35109   0.86438   0.94718   1.000
    C602    C    0.85108   0.36439   0.94718   1.000
    C603    C    0.85108   0.86438   0.94718   1.000
    C604    C    0.25783   0.31957   0.00000   1.000
    C605    C    0.25782   0.81956   0.00000   1.000
    C606    C    0.75781   0.31957   0.00000   1.000
    C607    C    0.75781   0.81956   0.00000   1.000
    C608    C    0.01303   0.14868   0.61362   1.000
    C609    C    0.01303   0.64867   0.61362   1.000
    C610    C    0.51302   0.14868   0.61362   1.000
    C611    C    0.51302   0.64867   0.61362   1.000
    C612    C    0.06098   0.24239   0.66722   1.000
    C613    C    0.06098   0.74238   0.66722   1.000
    C614    C    0.56097   0.24239   0.66722   1.000
    C615    C    0.56097   0.74238   0.66722   1.000
    C616    C    0.13541   0.48680   0.28070   1.000
    C617    C    0.13541   0.98679   0.28070   1.000
    C618    C    0.63540   0.48680   0.28070   1.000
    C619    C    0.63540   0.98679   0.28070   1.000
    C620    C    0.18061   0.43791   0.33439   1.000
    C621    C    0.18061   0.93790   0.33439   1.000
    C622    C    0.68060   0.43791   0.33439   1.000
    C623    C    0.68060   0.93790   0.33439   1.000
    C624    C    0.14864   0.13534   0.44720   1.000
    C625    C    0.14864   0.63533   0.44720   1.000
    C626    C    0.64863   0.13533   0.44720   1.000
    C627    C    0.64863   0.63533   0.44720   1.000
    C628    C    0.24203   0.18028   0.50103   1.000
    C629    C    0.24203   0.68027   0.50103   1.000
    C630    C    0.74202   0.18028   0.50102   1.000
    C631    C    0.74202   0.68026   0.50104   1.000
    C632    C    0.48718   0.35129   0.11334   1.000
    C633    C    0.48718   0.85128   0.11334   1.000
    C634    C    0.98717   0.35129   0.11334   1.000
    C635    C    0.98717   0.85128   0.11334   1.000
    C636    C    0.43916   0.25769   0.16700   1.000
    C637    C    0.43916   0.75768   0.16700   1.000
    C638    C    0.93915   0.25769   0.16700   1.000
    C639    C    0.93915   0.75768   0.16700   1.000
    C640    C    0.36457   0.01336   0.78088   1.000
    C641    C    0.36457   0.51335   0.78088   1.000
    C642    C    0.86456   0.01336   0.78088   1.000
    C643    C    0.86456   0.51335   0.78088   1.000
    C644    C    0.31913   0.06208   0.83423   1.000
    C645    C    0.31913   0.56207   0.83423   1.000
    C646    C    0.81912   0.06208   0.83423   1.000
    C647    C    0.81912   0.56207   0.83423   1.000
    C648    C    0.48673   0.13545   0.71935   1.000
    C649    C    0.48673   0.63544   0.71935   1.000
    C650    C    0.98672   0.13545   0.71935   1.000
    C651    C    0.98672   0.63544   0.71935   1.000
    C652    C    0.43809   0.18080   0.66555   1.000
    C653    C    0.43809   0.68079   0.66555   1.000
    C654    C    0.93808   0.18080   0.66555   1.000
    C655    C    0.93808   0.68079   0.66555   1.000
    C656    C    0.36489   0.35150   0.05270   1.000
    C657    C    0.36488   0.85149   0.05270   1.000
    C658    C    0.86487   0.35150   0.05270   1.000
    C659    C    0.86487   0.85149   0.05270   1.000
    C660    C    0.31919   0.25753   0.99959   1.000
    C661    C    0.31919   0.75752   0.99950   1.000
    C662    C    0.81918   0.25753   0.99958   1.000
    C663    C    0.81918   0.75752   0.99958   1.000
    C664    C    0.14873   0.01301   0.38648   1.000
    C665    C    0.14873   0.51300   0.38648   1.000
    C666    C    0.64872   0.01301   0.38648   1.000
    C667    C    0.64872   0.51301   0.38648   1.000
    C668    C    0.24221   0.06104   0.33269   1.000
    C669    C    0.24221   0.56103   0.33269   1.000
    C670    C    0.74220   0.06104   0.33269   1.000
    C671    C    0.74220   0.56103   0.33269   1.000
    C672    C    0.01345   0.36472   0.21909   1.000
    C673    C    0.01345   0.86471   0.21909   1.000
    C674    C    0.51344   0.36472   0.21909   1.000
    C675    C    0.51344   0.86471   0.21909   1.000
    C676    C    0.06204   0.31920   0.16564   1.000
    C677    C    0.06204   0.81919   0.16564   1.000
    C678    C    0.56203   0.31920   0.16564   1.000
    C679    C    0.56203   0.81919   0.16564   1.000
    C680    C    0.13506   0.14831   0.55270   1.000
    C681    C    0.13506   0.64830   0.55277   1.000
    C682    C    0.63505   0.14832   0.55270   1.000
    C683    C    0.63504   0.64830   0.55277   1.000
    C684    C    0.18059   0.24224   0.49930   1.000
    C685    C    0.18060   0.74223   0.49931   1.000
    C686    C    0.68058   0.24224   0.49930   1.000
    C687    C    0.68059   0.74223   0.49931   1.000
    C688    C    0.35102   0.48700   0.88664   1.000
    C689    C    0.35102   0.98699   0.88664   1.000
    C690    C    0.85101   0.48700   0.88664   1.000
    C691    C    0.85101   0.98699   0.88664   1.000
    C692    C    0.25766   0.43897   0.83269   1.000
    C693    C    0.25766   0.93896   0.83269   1.000
    C694    C    0.75765   0.43897   0.83269   1.000
    C695    C    0.75765   0.93896   0.83269   1.000
    O696    O    0.79055   0.82142   0.00010   1.000
    O697    O    0.73478   0.80160   0.02323   1.000
    O698    O    0.29056   0.32143   0.00010   1.000
    O699    O    0.23479   0.30161   0.02323   1.000
    O700    O    0.79054   0.32143   0.00000   1.000
    O701    O    0.84407   0.33739   0.02635   1.000
    O702    O    0.83718   0.34384   0.97359   1.000
    O703    O    0.82123   0.29041   0.99979   1.000
    O704    O    0.73478   0.30161   0.02323   1.000
    O705    O    0.29055   0.82142   0.00000   1.000
    O706    O    0.34408   0.83738   0.02635   1.000
    O707    O    0.33719   0.84383   0.97359   1.000
    O708    O    0.32124   0.79040   0.99975   1.000
    O709    O    0.23479   0.80160   0.02323   1.000
    O710    O    0.84408   0.83739   0.02645   1.000
    O711    O    0.83718   0.84383   0.97369   1.000
    O712    O    0.82123   0.79040   0.99989   1.000
    O713    O    0.34409   0.33740   0.02645   1.000
    O714    O    0.33719   0.34384   0.97369   1.000
    O715    O    0.32124   0.29041   0.99990   1.000
    O716    O    0.41489   0.75453   0.04697   1.000
    O717    O    0.46341   0.74997   0.98922   1.000
    O718    O    0.41489   0.25453   0.04697   1.000
    O719    O    0.46341   0.24998   0.98922   1.000
    O720    O    0.91488   0.25453   0.04697   1.000
    O721    O    0.96340   0.24998   0.98922   1.000
    O722    O    0.91488   0.75452   0.04697   1.000
    O723    O    0.96340   0.74997   0.98922   1.000
    O724    O    0.18680   0.27726   0.03890   1.000
    O725    O    0.18680   0.77725   0.03890   1.000
    O726    O    0.68679   0.27726   0.03890   1.000
    O727    O    0.68679   0.77725   0.03890   1.000
    O728    O    0.25397   0.49562   0.05765   1.000
    O729    O    0.24952   0.46327   0.01054   1.000
    O730    O    0.75396   0.99563   0.05766   1.000
    O731    O    0.74951   0.96326   0.01055   1.000
    O732    O    0.75396   0.49562   0.05766   1.000
    O733    O    0.74951   0.46327   0.01055   1.000
    O734    O    0.25397   0.99563   0.05767   1.000
    O735    O    0.24952   0.96326   0.01055   1.000
    O736    O    0.38689   0.43311   0.05770   1.000
    O737    O    0.88688   0.93310   0.05772   1.000
    O738    O    0.88688   0.43311   0.05772   1.000
    O739    O    0.38689   0.93310   0.05772   1.000
    O740    O    0.21220   0.76064   0.05171   1.000
    O741    O    0.21746   0.79870   0.06651   1.000
    O742    O    0.71219   0.76064   0.05171   1.000
    O743    O    0.71745   0.79870   0.06651   1.000
    O744    O    0.21220   0.26065   0.05171   1.000
    O745    O    0.21746   0.29871   0.06651   1.000
    O746    O    0.71219   0.26065   0.05171   1.000
    O747    O    0.71745   0.29871   0.06651   1.000
    O748    O    0.87065   0.88260   0.06375   1.000
    O749    O    0.87065   0.38261   0.06375   1.000
    O750    O    0.37066   0.88260   0.06375   1.000
    O751    O    0.37066   0.38262   0.06375   1.000
    O752    O    0.52681   0.42090   0.07328   1.000
    O753    O    0.02682   0.42090   0.07328   1.000
    O754    O    0.02682   0.92089   0.07328   1.000
    O755    O    0.52681   0.92089   0.07328   1.000
    O756    O    0.85333   0.91219   0.08295   1.000
    O757    O    0.89424   0.92094   0.09240   1.000
    O758    O    0.85332   0.41220   0.08295   1.000
    O759    O    0.89424   0.42095   0.09240   1.000
    O760    O    0.35334   0.91219   0.08295   1.000
    O761    O    0.39425   0.92094   0.09289   1.000
    O762    O    0.35334   0.41220   0.08295   1.000
    O763    O    0.39425   0.42095   0.09289   1.000
    O764    O    0.55902   0.41217   0.08340   1.000
    O765    O    0.55902   0.91216   0.08340   1.000
    O766    O    0.05903   0.91216   0.08340   1.000
    O767    O    0.05903   0.41217   0.08340   1.000
    O768    O    0.58199   0.79864   0.10035   1.000
    O769    O    0.58199   0.29865   0.10035   1.000
    O770    O    0.08200   0.79864   0.10035   1.000
    O771    O    0.08200   0.29865   0.10035   1.000
    O772    O    0.77393   0.54809   0.08340   1.000
    O773    O    0.74054   0.49562   0.10888   1.000
    O774    O    0.35134   0.20132   0.08350   1.000
    O775    O    0.35134   0.70131   0.08350   1.000
    O776    O    0.85133   0.20132   0.08350   1.000
    O777    O    0.85133   0.70131   0.08350   1.000
    O778    O    0.27394   0.54809   0.08340   1.000
    O779    O    0.24055   0.49562   0.10888   1.000
    O780    O    0.77393   0.04810   0.08340   1.000
    O781    O    0.74054   0.99562   0.10888   1.000
    O782    O    0.27394   0.04810   0.08341   1.000
    O783    O    0.24055   0.99562   0.10888   1.000
    O784    O    0.80660   0.11221   0.08360   1.000
    O785    O    0.80660   0.61220   0.08360   1.000
    O786    O    0.30661   0.61220   0.08360   1.000
    O787    O    0.30661   0.11221   0.08360   1.000
    O788    O    0.01227   0.38246   0.10239   1.000
    O789    O    0.04601   0.43296   0.10853   1.000
    O790    O    0.01228   0.88245   0.10239   1.000
    O791    O    0.04601   0.93295   0.10853   1.000
    O792    O    0.51227   0.38246   0.10239   1.000
    O793    O    0.54600   0.43296   0.10853   1.000
    O794    O    0.51228   0.88245   0.10239   1.000
    O795    O    0.54600   0.93295   0.10853   1.000
    O796    O    0.04946   0.26051   0.11505   1.000
    O797    O    0.04947   0.76050   0.11505   1.000
    O798    O    0.54946   0.26051   0.11505   1.000
    O799    O    0.54946   0.76050   0.11505   1.000
    O800    O    0.49382   0.33727   0.13985   1.000
    O801    O    0.49382   0.83726   0.13985   1.000
    O802    O    0.99382   0.33727   0.13985   1.000
    O803    O    0.99382   0.83726   0.13985   1.000
    O804    O    0.09126   0.27705   0.12796   1.000
    O805    O    0.06736   0.30134   0.14301   1.000
    O806    O    0.59125   0.77704   0.12796   1.000
    O807    O    0.56735   0.80133   0.14301   1.000
    O808    O    0.59125   0.27705   0.12796   1.000
    O809    O    0.56735   0.30134   0.14301   1.000
    O810    O    0.09126   0.77704   0.12796   1.000
    O811    O    0.06736   0.80133   0.14301   1.000
    O812    O    0.71216   0.46327   0.15585   1.000
    O813    O    0.21217   0.46327   0.15585   1.000
    O814    O    0.21217   0.96326   0.15585   1.000
    O815    O    0.71216   0.96326   0.15585   1.000
    O816    O    0.28796   0.75063   0.17751   1.000
    O817    O    0.78795   0.25064   0.17751   1.000
    O818    O    0.28796   0.25064   0.17751   1.000
    O819    O    0.78795   0.75063   0.17751   1.000
    O820    O    0.03126   0.82122   0.16600   1.000
    O821    O    0.03125   0.32123   0.16600   1.000
    O822    O    0.53125   0.82122   0.16600   1.000
    O823    O    0.53125   0.32123   0.16600   1.000
    O824    O    0.46981   0.79046   0.16668   1.000
    O825    O    0.50695   0.84398   0.19272   1.000
    O826    O    0.46981   0.29047   0.16668   1.000
    O827    O    0.50695   0.34399   0.19272   1.000
    O828    O    0.96981   0.79046   0.16668   1.000
    O829    O    0.00696   0.84398   0.19272   1.000
    O830    O    0.96981   0.29047   0.16668   1.000
    O831    O    0.00696   0.34399   0.19272   1.000
    O832    O    0.93391   0.73464   0.18992   1.000
    O833    O    0.43392   0.23465   0.18992   1.000
    O834    O    0.43392   0.73464   0.18992   1.000
    O835    O    0.93391   0.23465   0.18992   1.000
    O836    O    0.65934   0.91454   0.21364   1.000
    O837    O    0.65934   0.41455   0.21364   1.000
    O838    O    0.15935   0.91454   0.21364   1.000
    O839    O    0.15935   0.41455   0.21364   1.000
    O840    O    0.91012   0.68663   0.20536   1.000
    O841    O    0.91012   0.18664   0.20536   1.000
    O842    O    0.41013   0.68663   0.20536   1.000
    O843    O    0.41013   0.18664   0.20536   1.000
    O844    O    0.25943   0.25457   0.22441   1.000
    O845    O    0.25943   0.75456   0.22441   1.000
    O846    O    0.75942   0.25457   0.22441   1.000
    O847    O    0.75942   0.75456   0.22441   1.000
    O848    O    0.45398   0.38701   0.22382   1.000
    O849    O    0.45398   0.88700   0.22382   1.000
    O850    O    0.95397   0.38701   0.22382   1.000
    O851    O    0.95397   0.88701   0.22382   1.000
    O852    O    0.45193   0.21181   0.21822   1.000
    O853    O    0.41935   0.21753   0.23281   1.000
    O854    O    0.45193   0.71180   0.21822   1.000
    O855    O    0.41935   0.71752   0.23281   1.000
    O856    O    0.95192   0.21181   0.21822   1.000
    O857    O    0.91934   0.21753   0.23281   1.000
    O858    O    0.95192   0.71180   0.21822   1.000
    O859    O    0.91934   0.71752   0.23281   1.000
    O860    O    0.48812   0.87057   0.23001   1.000
    O861    O    0.98812   0.37058   0.23001   1.000
    O862    O    0.98812   0.87057   0.23001   1.000
    O863    O    0.48812   0.37058   0.23001   1.000
    O864    O    0.10585   0.02710   0.24073   1.000
    O865    O    0.60584   0.52709   0.24073   1.000
    O866    O    0.10585   0.52709   0.24073   1.000
    O867    O    0.60584   0.02710   0.24073   1.000
    O868    O    0.44130   0.35331   0.24901   1.000
    O869    O    0.47322   0.39422   0.25906   1.000
    O870    O    0.44130   0.85330   0.24901   1.000
    O871    O    0.47322   0.89421   0.25906   1.000
    O872    O    0.94129   0.35331   0.24901   1.000
    O873    O    0.97321   0.39422   0.25906   1.000
    O874    O    0.94129   0.85330   0.24901   1.000
    O875    O    0.97321   0.89421   0.25906   1.000
    O876    O    0.64668   0.55907   0.25078   1.000
    O877    O    0.14669   0.05907   0.25078   1.000
    O878    O    0.14670   0.55907   0.25078   1.000
    O879    O    0.64668   0.05907   0.25078   1.000
    O880    O    0.78228   0.58083   0.26722   1.000
    O881    O    0.78228   0.08083   0.26722   1.000
    O882    O    0.28229   0.58082   0.26722   1.000
    O883    O    0.28229   0.08083   0.26722   1.000
    O884    O    0.19395   0.30598   0.24987   1.000
    O885    O    0.14928   0.35060   0.24994   1.000
    O886    O    0.19395   0.80597   0.24987   1.000
    O887    O    0.14928   0.85059   0.24994   1.000
    O888    O    0.69394   0.30598   0.24987   1.000
    O889    O    0.64927   0.35060   0.24994   1.000
    O890    O    0.69394   0.80597   0.24987   1.000
    O891    O    0.64927   0.85059   0.24994   1.000
    O892    O    0.72617   0.77392   0.24991   1.000
    O893    O    0.22618   0.27393   0.24991   1.000
    O894    O    0.72617   0.27393   0.24991   1.000
    O895    O    0.22619   0.77392   0.24991   1.000
    O896    O    0.24568   0.24085   0.27557   1.000
    O897    O    0.74567   0.74084   0.27557   1.000
    O898    O    0.74567   0.24085   0.27557   1.000
    O899    O    0.24568   0.74084   0.27557   1.000
    O900    O    0.12952   0.01216   0.26979   1.000
    O901    O    0.11309   0.04634   0.27597   1.000
    O902    O    0.12952   0.51216   0.26979   1.000
    O903    O    0.11309   0.54633   0.27597   1.000
    O904    O    0.62951   0.01216   0.26979   1.000
    O905    O    0.61308   0.04634   0.27597   1.000
    O906    O    0.62951   0.51216   0.26979   1.000
    O907    O    0.61308   0.54633   0.27597   1.000
    O908    O    0.28794   0.04816   0.28186   1.000
    O909    O    0.78793   0.04816   0.28186   1.000
    O910    O    0.78793   0.54815   0.28190   1.000
    O911    O    0.28795   0.54815   0.28190   1.000
    O912    O    0.15606   0.99325   0.30714   1.000
    O913    O    0.65605   0.49325   0.30714   1.000
    O914    O    0.65605   0.99325   0.30714   1.000
    O915    O    0.15606   0.49325   0.30714   1.000
    O916    O    0.81311   0.59002   0.29471   1.000
    O917    O    0.76519   0.56625   0.30996   1.000
    O918    O    0.81311   0.09002   0.29471   1.000
    O919    O    0.76519   0.06626   0.30996   1.000
    O920    O    0.31312   0.59002   0.29471   1.000
    O921    O    0.26520   0.56625   0.30996   1.000
    O922    O    0.31312   0.09003   0.29471   1.000
    O923    O    0.26520   0.06626   0.30996   1.000
    O924    O    0.24962   0.21247   0.32266   1.000
    O925    O    0.24962   0.71246   0.32266   1.000
    O926    O    0.74961   0.21247   0.32266   1.000
    O927    O    0.74961   0.71246   0.32266   1.000
    O928    O    0.53652   0.78740   0.34402   1.000
    O929    O    0.53652   0.28741   0.34402   1.000
    O930    O    0.03653   0.78740   0.34402   1.000
    O931    O    0.03653   0.28741   0.34402   1.000
    O932    O    0.20946   0.53036   0.33313   1.000
    O933    O    0.70945   0.03037   0.33313   1.000
    O934    O    0.70945   0.53036   0.33313   1.000
    O935    O    0.20946   0.03037   0.33313   1.000
    O936    O    0.67865   0.46880   0.33398   1.000
    O937    O    0.66271   0.50635   0.36002   1.000
    O938    O    0.67865   0.96880   0.33398   1.000
    O939    O    0.66271   0.00636   0.36002   1.000
    O940    O    0.17866   0.46880   0.33398   1.000
    O941    O    0.16272   0.50635   0.36002   1.000
    O942    O    0.17866   0.96880   0.33398   1.000
    O943    O    0.16272   0.00636   0.36002   1.000
    O944    O    0.19850   0.43257   0.35701   1.000
    O945    O    0.19850   0.93256   0.35701   1.000
    O946    O    0.69849   0.43257   0.35701   1.000
    O947    O    0.69849   0.93256   0.35701   1.000
    O948    O    0.74518   0.65936   0.38047   1.000
    O949    O    0.74518   0.15937   0.38047   1.000
    O950    O    0.24519   0.65936   0.38047   1.000
    O951    O    0.24519   0.15937   0.38047   1.000
    O952    O    0.22281   0.90862   0.37202   1.000
    O953    O    0.22281   0.40863   0.37202   1.000
    O954    O    0.72280   0.40863   0.37202   1.000
    O955    O    0.72280   0.90862   0.37202   1.000
    O956    O    0.50413   0.75920   0.39101   1.000
    O957    O    0.50413   0.25921   0.39101   1.000
    O958    O    0.00413   0.25921   0.39101   1.000
    O959    O    0.00413   0.75920   0.39101   1.000
    O960    O    0.56724   0.45398   0.39131   1.000
    O961    O    0.06725   0.95397   0.39131   1.000
    O962    O    0.06725   0.45398   0.39131   1.000
    O963    O    0.56724   0.95397   0.39131   1.000
    O964    O    0.73933   0.95047   0.38493   1.000
    O965    O    0.70131   0.91786   0.39966   1.000
    O966    O    0.73933   0.45048   0.38493   1.000
    O967    O    0.70131   0.41787   0.39966   1.000
    O968    O    0.23934   0.95047   0.38493   1.000
    O969    O    0.20132   0.91786   0.39966   1.000
    O970    O    0.23934   0.45048   0.38493   1.000
    O971    O    0.20132   0.41787   0.39966   1.000
    O972    O    0.11765   0.98781   0.39743   1.000
    O973    O    0.11765   0.48781   0.39743   1.000
    O974    O    0.61764   0.98781   0.39743   1.000
    O975    O    0.61764   0.48781   0.39743   1.000
    O976    O    0.07927   0.10587   0.40705   1.000
    O977    O    0.07927   0.60586   0.40705   1.000
    O978    O    0.57926   0.10587   0.40704   1.000
    O979    O    0.57927   0.60586   0.40706   1.000
    O980    O    0.58808   0.94093   0.41642   1.000
    O981    O    0.57932   0.97314   0.42656   1.000
    O982    O    0.58808   0.44094   0.41642   1.000
    O983    O    0.57931   0.47315   0.42656   1.000
    O984    O    0.08809   0.94093   0.41642   1.000
    O985    O    0.07933   0.97314   0.42656   1.000
    O986    O    0.08809   0.44094   0.41642   1.000
    O987    O    0.07932   0.47315   0.42656   1.000
    O988    O    0.58795   0.14682   0.41698   1.000
    O989    O    0.08796   0.14682   0.41700   1.000
    O990    O    0.08796   0.64681   0.41700   1.000
    O991    O    0.58795   0.64682   0.41700   1.000
    O992    O    0.20116   0.78256   0.43385   1.000
    O993    O    0.70114   0.28257   0.43342   1.000
    O994    O    0.20115   0.28257   0.43387   1.000
    O995    O    0.70114   0.78256   0.43387   1.000
    O996    O    0.88771   0.19384   0.41654   1.000
    O997    O    0.88771   0.69384   0.41654   1.000
    O998    O    0.38772   0.69384   0.41654   1.000
    O999    O    0.38772   0.19385   0.41654   1.000
    O1000   O    0.95171   0.22612   0.41658   1.000
    O1001   O    0.45172   0.72611   0.41658   1.000
    O1002   O    0.45172   0.22612   0.41658   1.000
    O1003   O    0.95171   0.72611   0.41658   1.000
    O1004   O    0.00416   0.24581   0.44223   1.000
    O1005   O    0.50416   0.24581   0.44223   1.000
    O1006   O    0.00416   0.74580   0.44223   1.000
    O1007   O    0.50416   0.74580   0.44223   1.000
    O1008   O    0.24569   0.58520   0.45295   1.000
    O1009   O    0.24568   0.08521   0.45295   1.000
    O1010   O    0.74567   0.58520   0.45295   1.000
    O1011   O    0.74567   0.08521   0.45295   1.000
    O1012   O    0.61754   0.12951   0.43618   1.000
    O1013   O    0.56713   0.11317   0.44217   1.000
    O1014   O    0.11756   0.12951   0.43618   1.000
    O1015   O    0.06714   0.11317   0.44222   1.000
    O1016   O    0.11756   0.62950   0.43618   1.000
    O1017   O    0.06714   0.61316   0.44222   1.000
    O1018   O    0.61755   0.62951   0.43618   1.000
    O1019   O    0.56713   0.61316   0.44222   1.000
    O1020   O    0.23920   0.28786   0.44861   1.000
    O1021   O    0.23920   0.78785   0.44861   1.000
    O1022   O    0.73919   0.28786   0.44816   1.000
    O1023   O    0.73919   0.78785   0.44862   1.000
    O1024   O    0.16259   0.15591   0.47364   1.000
    O1025   O    0.16259   0.65590   0.47364   1.000
    O1026   O    0.66257   0.15591   0.47364   1.000
    O1027   O    0.66258   0.65590   0.47364   1.000
    O1028   O    0.72267   0.31333   0.46095   1.000
    O1029   O    0.69841   0.26528   0.47615   1.000
    O1030   O    0.22268   0.31333   0.46140   1.000
    O1031   O    0.19843   0.26528   0.47660   1.000
    O1032   O    0.22268   0.81332   0.46140   1.000
    O1033   O    0.19843   0.76527   0.47661   1.000
    O1034   O    0.72267   0.81332   0.46140   1.000
    O1035   O    0.69842   0.76527   0.47661   1.000
    O1036   O    0.03658   0.75013   0.48928   1.000
    O1037   O    0.03657   0.25014   0.48928   1.000
    O1038   O    0.53656   0.25014   0.48928   1.000
    O1039   O    0.53657   0.75013   0.48928   1.000
    O1040   O    0.25039   0.03662   0.51059   1.000
    O1041   O    0.75038   0.03662   0.51059   1.000
    O1042   O    0.75039   0.53661   0.51054   1.000
    O1043   O    0.25040   0.53661   0.51059   1.000
    O1044   O    0.67855   0.20936   0.49969   1.000
    O1045   O    0.17856   0.20936   0.49969   1.000
    O1046   O    0.67856   0.70935   0.49970   1.000
    O1047   O    0.17857   0.70935   0.49970   1.000
    O1048   O    0.70927   0.17839   0.50055   1.000
    O1049   O    0.65579   0.16240   0.52639   1.000
    O1050   O    0.70927   0.67837   0.50056   1.000
    O1051   O    0.65578   0.66239   0.52643   1.000
    O1052   O    0.20928   0.67837   0.50055   1.000
    O1053   O    0.15580   0.66239   0.52643   1.000
    O1054   O    0.20928   0.17838   0.50055   1.000
    O1055   O    0.15580   0.16240   0.52639   1.000
    O1056   O    0.76505   0.19822   0.52365   1.000
    O1057   O    0.26506   0.19822   0.52366   1.000
    O1058   O    0.26506   0.69821   0.52366   1.000
    O1059   O    0.76505   0.69820   0.52367   1.000
    O1060   O    0.08516   0.24549   0.54696   1.000
    O1061   O    0.08516   0.74548   0.54696   1.000
    O1062   O    0.58515   0.24549   0.54696   1.000
    O1063   O    0.58515   0.74548   0.54696   1.000
    O1064   O    0.81304   0.22257   0.53874   1.000
    O1065   O    0.31305   0.72256   0.53875   1.000
    O1066   O    0.31305   0.22257   0.53875   1.000
    O1067   O    0.81304   0.72256   0.53875   1.000
    O1068   O    0.74603   0.50430   0.55773   1.000
    O1069   O    0.74603   0.00430   0.55778   1.000
    O1070   O    0.24604   0.00430   0.55778   1.000
    O1071   O    0.24604   0.50430   0.55778   1.000
    O1072   O    0.11303   0.06669   0.55785   1.000
    O1073   O    0.61302   0.06669   0.55786   1.000
    O1074   O    0.61302   0.56667   0.55786   1.000
    O1075   O    0.11303   0.56668   0.55786   1.000
    O1076   O    0.78762   0.23915   0.55151   1.000
    O1077   O    0.78237   0.20108   0.56636   1.000
    O1078   O    0.28763   0.23915   0.55151   1.000
    O1079   O    0.28239   0.20108   0.56637   1.000
    O1080   O    0.28763   0.73914   0.55151   1.000
    O1081   O    0.28239   0.70107   0.56637   1.000
    O1082   O    0.78762   0.73914   0.55151   1.000
    O1083   O    0.78238   0.70107   0.56637   1.000
    O1084   O    0.12928   0.11719   0.56380   1.000
    O1085   O    0.62927   0.11719   0.56380   1.000
    O1086   O    0.12928   0.61718   0.56383   1.000
    O1087   O    0.62927   0.61718   0.56383   1.000
    O1088   O    0.47322   0.57921   0.57353   1.000
    O1089   O    0.97321   0.57921   0.57353   1.000
    O1090   O    0.97320   0.07922   0.57353   1.000
    O1091   O    0.47321   0.07922   0.57353   1.000
    O1092   O    0.14660   0.08758   0.58306   1.000
    O1093   O    0.10570   0.07884   0.59300   1.000
    O1094   O    0.64659   0.58757   0.58306   1.000
    O1095   O    0.60569   0.57883   0.59300   1.000
    O1096   O    0.64659   0.08758   0.58306   1.000
    O1097   O    0.60569   0.07884   0.59300   1.000
    O1098   O    0.14660   0.58757   0.58306   1.000
    O1099   O    0.10570   0.57883   0.59300   1.000
    O1100   O    0.94108   0.58805   0.58365   1.000
    O1101   O    0.94108   0.08806   0.58365   1.000
    O1102   O    0.44110   0.58805   0.58365   1.000
    O1103   O    0.44109   0.08806   0.58365   1.000
    O1104   O    0.41815   0.70151   0.60024   1.000
    O1105   O    0.91814   0.20152   0.60024   1.000
    O1106   O    0.91814   0.70151   0.60024   1.000
    O1107   O    0.41815   0.20152   0.60024   1.000
    O1108   O    0.15897   0.24481   0.61968   1.000
    O1109   O    0.65896   0.24481   0.61968   1.000
    O1110   O    0.15897   0.74481   0.61968   1.000
    O1111   O    0.65896   0.74480   0.61968   1.000
    O1112   O    0.72621   0.95183   0.58354   1.000
    O1113   O    0.75943   0.00434   0.60902   1.000
    O1114   O    0.72622   0.45184   0.58354   1.000
    O1115   O    0.75943   0.50434   0.60902   1.000
    O1116   O    0.22623   0.45184   0.58354   1.000
    O1117   O    0.25944   0.50434   0.60902   1.000
    O1118   O    0.22623   0.95183   0.58354   1.000
    O1119   O    0.25944   0.00434   0.60902   1.000
    O1120   O    0.19375   0.88771   0.58366   1.000
    O1121   O    0.69374   0.38772   0.58366   1.000
    O1122   O    0.19375   0.38772   0.58366   1.000
    O1123   O    0.69374   0.88772   0.58366   1.000
    O1124   O    0.48786   0.11758   0.60266   1.000
    O1125   O    0.45400   0.06710   0.60877   1.000
    O1126   O    0.48786   0.61757   0.60266   1.000
    O1127   O    0.45400   0.56709   0.60877   1.000
    O1128   O    0.98786   0.11758   0.60266   1.000
    O1129   O    0.95399   0.06710   0.60877   1.000
    O1130   O    0.98786   0.61757   0.60266   1.000
    O1131   O    0.95399   0.56709   0.60877   1.000
    O1132   O    0.45072   0.23961   0.61491   1.000
    O1133   O    0.95071   0.73960   0.61491   1.000
    O1134   O    0.95071   0.23961   0.61491   1.000
    O1135   O    0.45072   0.73960   0.61491   1.000
    O1136   O    0.50637   0.66274   0.64004   1.000
    O1137   O    0.50637   0.16275   0.64001   1.000
    O1138   O    0.00638   0.66274   0.64004   1.000
    O1139   O    0.00638   0.16275   0.64004   1.000
    O1140   O    0.90892   0.72309   0.62784   1.000
    O1141   O    0.93278   0.69871   0.64290   1.000
    O1142   O    0.90892   0.22310   0.62784   1.000
    O1143   O    0.93278   0.19872   0.64290   1.000
    O1144   O    0.40893   0.72309   0.62784   1.000
    O1145   O    0.43279   0.69871   0.64290   1.000
    O1146   O    0.40893   0.22310   0.62784   1.000
    O1147   O    0.43279   0.19872   0.64290   1.000
    O1148   O    0.28771   0.53679   0.65593   1.000
    O1149   O    0.78770   0.03680   0.65593   1.000
    O1150   O    0.78770   0.53679   0.65593   1.000
    O1151   O    0.28771   0.03680   0.65593   1.000
    O1152   O    0.21191   0.24910   0.67756   1.000
    O1153   O    0.21192   0.74910   0.67756   1.000
    O1154   O    0.71190   0.24910   0.67756   1.000
    O1155   O    0.71190   0.74910   0.67756   1.000
    O1156   O    0.96891   0.67880   0.66600   1.000
    O1157   O    0.96890   0.17881   0.66600   1.000
    O1158   O    0.46890   0.67880   0.66600   1.000
    O1159   O    0.46890   0.17880   0.66598   1.000
    O1160   O    0.53034   0.20960   0.66681   1.000
    O1161   O    0.49322   0.15613   0.69288   1.000
    O1162   O    0.53034   0.70959   0.66684   1.000
    O1163   O    0.49322   0.65612   0.69290   1.000
    O1164   O    0.03036   0.70959   0.66684   1.000
    O1165   O    0.99323   0.65612   0.69290   1.000
    O1166   O    0.03035   0.20960   0.66684   1.000
    O1167   O    0.99322   0.15613   0.69290   1.000
    O1168   O    0.06624   0.76539   0.68997   1.000
    O1169   O    0.06624   0.26540   0.68997   1.000
    O1170   O    0.56623   0.26540   0.68997   1.000
    O1171   O    0.56623   0.76539   0.68997   1.000
    O1172   O    0.59007   0.81337   0.70521   1.000
    O1173   O    0.59007   0.31337   0.70521   1.000
    O1174   O    0.09008   0.81337   0.70521   1.000
    O1175   O    0.09008   0.31337   0.70521   1.000
    O1176   O    0.24055   0.24541   0.72453   1.000
    O1177   O    0.24055   0.74540   0.72453   1.000
    O1178   O    0.74054   0.24541   0.72453   1.000
    O1179   O    0.74054   0.74540   0.72453   1.000
    O1180   O    0.54603   0.61290   0.72407   1.000
    O1181   O    0.04604   0.11291   0.72407   1.000
    O1182   O    0.54603   0.11291   0.72407   1.000
    O1183   O    0.04604   0.61290   0.72407   1.000
    O1184   O    0.54826   0.78823   0.71807   1.000
    O1185   O    0.58080   0.78242   0.73270   1.000
    O1186   O    0.04827   0.28824   0.71807   1.000
    O1187   O    0.08081   0.28243   0.73270   1.000
    O1188   O    0.04827   0.78823   0.71807   1.000
    O1189   O    0.08081   0.78242   0.73270   1.000
    O1190   O    0.54826   0.28823   0.71807   1.000
    O1191   O    0.58080   0.28243   0.73270   1.000
    O1192   O    0.51200   0.62946   0.73026   1.000
    O1193   O    0.51200   0.12947   0.73026   1.000
    O1194   O    0.01200   0.12947   0.73026   1.000
    O1195   O    0.01200   0.62946   0.73026   1.000
    O1196   O    0.39409   0.47311   0.74093   1.000
    O1197   O    0.39409   0.97310   0.74093   1.000
    O1198   O    0.89408   0.47311   0.74093   1.000
    O1199   O    0.89408   0.97310   0.74093   1.000
    O1200   O    0.05881   0.64656   0.74925   1.000
    O1201   O    0.02682   0.60566   0.75932   1.000
    O1202   O    0.05881   0.14657   0.74925   1.000
    O1203   O    0.02682   0.10567   0.75932   1.000
    O1204   O    0.55880   0.64656   0.74925   1.000
    O1205   O    0.52681   0.60566   0.75932   1.000
    O1206   O    0.55880   0.14657   0.74925   1.000
    O1207   O    0.52681   0.10567   0.75932   1.000
    O1208   O    0.35323   0.94112   0.75097   1.000
    O1209   O    0.85322   0.44113   0.75097   1.000
    O1210   O    0.85322   0.94112   0.75097   1.000
    O1211   O    0.35323   0.44113   0.75097   1.000
    O1212   O    0.71763   0.91926   0.76719   1.000
    O1213   O    0.21764   0.91926   0.76720   1.000
    O1214   O    0.21764   0.41927   0.76720   1.000
    O1215   O    0.71763   0.41927   0.76720   1.000
    O1216   O    0.80637   0.19438   0.74989   1.000
    O1217   O    0.85095   0.14969   0.74992   1.000
    O1218   O    0.85095   0.64968   0.74992   1.000
    O1219   O    0.80637   0.69437   0.74993   1.000
    O1220   O    0.35096   0.64968   0.74992   1.000
    O1221   O    0.30638   0.69437   0.74993   1.000
    O1222   O    0.35096   0.14969   0.74992   1.000
    O1223   O    0.30638   0.19438   0.74993   1.000
    O1224   O    0.77395   0.22624   0.74999   1.000
    O1225   O    0.41472   0.15962   0.78632   1.000
    O1226   O    0.41472   0.65961   0.78629   1.000
    O1227   O    0.91471   0.15962   0.78632   1.000
    O1228   O    0.91471   0.65961   0.78632   1.000
    O1229   O    0.27397   0.22624   0.75004   1.000
    O1230   O    0.27397   0.72623   0.75004   1.000
    O1231   O    0.77396   0.72623   0.75004   1.000
    O1232   O    0.75432   0.75918   0.77567   1.000
    O1233   O    0.25433   0.75918   0.77567   1.000
    O1234   O    0.25433   0.25919   0.77567   1.000
    O1235   O    0.75432   0.25919   0.77567   1.000
    O1236   O    0.87043   0.48800   0.76997   1.000
    O1237   O    0.88682   0.45378   0.77613   1.000
    O1238   O    0.37044   0.98800   0.76997   1.000
    O1239   O    0.38683   0.95377   0.77613   1.000
    O1240   O    0.37044   0.48800   0.76997   1.000
    O1241   O    0.38683   0.45378   0.77613   1.000
    O1242   O    0.87043   0.98800   0.76997   1.000
    O1243   O    0.88682   0.95377   0.77613   1.000
    O1244   O    0.71196   0.95192   0.78180   1.000
    O1245   O    0.21197   0.45193   0.78180   1.000
    O1246   O    0.21197   0.95192   0.78180   1.000
    O1247   O    0.71196   0.45193   0.78180   1.000
    O1248   O    0.34385   0.00686   0.80725   1.000
    O1249   O    0.84384   0.50685   0.80725   1.000
    O1250   O    0.84384   0.00686   0.80725   1.000
    O1251   O    0.34385   0.50685   0.80725   1.000
    O1252   O    0.18679   0.91003   0.79466   1.000
    O1253   O    0.23469   0.93378   0.80993   1.000
    O1254   O    0.68678   0.41004   0.79466   1.000
    O1255   O    0.73468   0.43379   0.80993   1.000
    O1256   O    0.68678   0.91003   0.79466   1.000
    O1257   O    0.73468   0.93378   0.80993   1.000
    O1258   O    0.18679   0.41004   0.79466   1.000
    O1259   O    0.23469   0.43379   0.80993   1.000
    O1260   O    0.25032   0.28753   0.82268   1.000
    O1261   O    0.25032   0.78752   0.82268   1.000
    O1262   O    0.75031   0.28753   0.82268   1.000
    O1263   O    0.75031   0.78752   0.82268   1.000
    O1264   O    0.46348   0.71243   0.84400   1.000
    O1265   O    0.46348   0.21244   0.84404   1.000
    O1266   O    0.96347   0.21244   0.84404   1.000
    O1267   O    0.96347   0.71243   0.84404   1.000
    O1268   O    0.79038   0.96966   0.83315   1.000
    O1269   O    0.29039   0.46966   0.83315   1.000
    O1270   O    0.29039   0.96966   0.83315   1.000
    O1271   O    0.79038   0.46966   0.83315   1.000
    O1272   O    0.82112   0.53121   0.83392   1.000
    O1273   O    0.83706   0.49367   0.86013   1.000
    O1274   O    0.82112   0.03122   0.83392   1.000
    O1275   O    0.83706   0.99367   0.86013   1.000
    O1276   O    0.32113   0.53121   0.83392   1.000
    O1277   O    0.33707   0.49367   0.86013   1.000
    O1278   O    0.32113   0.03122   0.83392   1.000
    O1279   O    0.33707   0.99367   0.86013   1.000
    O1280   O    0.30134   0.06745   0.85688   1.000
    O1281   O    0.30134   0.56744   0.85688   1.000
    O1282   O    0.80133   0.06745   0.85688   1.000
    O1283   O    0.80133   0.56744   0.85688   1.000
    O1284   O    0.75465   0.34055   0.88047   1.000
    O1285   O    0.25466   0.84054   0.88047   1.000
    O1286   O    0.25466   0.34055   0.88045   1.000
    O1287   O    0.75465   0.84054   0.88047   1.000
    O1288   O    0.27718   0.59147   0.87194   1.000
    O1289   O    0.27718   0.09148   0.87194   1.000
    O1290   O    0.77717   0.09148   0.87194   1.000
    O1291   O    0.77717   0.59147   0.87194   1.000
    O1292   O    0.49582   0.24071   0.89099   1.000
    O1293   O    0.49582   0.74071   0.89099   1.000
    O1294   O    0.99582   0.24071   0.89099   1.000
    O1295   O    0.99582   0.74070   0.89099   1.000
    O1296   O    0.93255   0.04587   0.89133   1.000
    O1297   O    0.93255   0.54586   0.89133   1.000
    O1298   O    0.43257   0.54586   0.89133   1.000
    O1299   O    0.43256   0.04587   0.89133   1.000
    O1300   O    0.76057   0.54958   0.88489   1.000
    O1301   O    0.79867   0.58211   0.89954   1.000
    O1302   O    0.26058   0.04959   0.88489   1.000
    O1303   O    0.29868   0.08212   0.89954   1.000
    O1304   O    0.26058   0.54958   0.88489   1.000
    O1305   O    0.29868   0.58211   0.89954   1.000
    O1306   O    0.76057   0.04959   0.88489   1.000
    O1307   O    0.79867   0.08212   0.89954   1.000
    O1308   O    0.88214   0.01212   0.89753   1.000
    O1309   O    0.88214   0.51212   0.89753   1.000
    O1310   O    0.38215   0.01212   0.89753   1.000
    O1311   O    0.38215   0.51212   0.89753   1.000
    O1312   O    0.42053   0.89408   0.90711   1.000
    O1313   O    0.92052   0.39409   0.90711   1.000
    O1314   O    0.92052   0.89408   0.90711   1.000
    O1315   O    0.42053   0.39409   0.90712   1.000
    O1316   O    0.41185   0.05895   0.91647   1.000
    O1317   O    0.42052   0.02666   0.92661   1.000
    O1318   O    0.91184   0.55894   0.91647   1.000
    O1319   O    0.92051   0.52665   0.92661   1.000
    O1320   O    0.91183   0.05895   0.91647   1.000
    O1321   O    0.92051   0.02666   0.92661   1.000
    O1322   O    0.41185   0.55894   0.91647   1.000
    O1323   O    0.42052   0.52665   0.92661   1.000
    O1324   O    0.41191   0.35314   0.91706   1.000
    O1325   O    0.91190   0.85313   0.91707   1.000
    O1326   O    0.91190   0.35314   0.91707   1.000
    O1327   O    0.41191   0.85313   0.91707   1.000
    O1328   O    0.29891   0.21743   0.93411   1.000
    O1329   O    0.29892   0.71742   0.93411   1.000
    O1330   O    0.79890   0.21743   0.93411   1.000
    O1331   O    0.79891   0.71742   0.93411   1.000
    O1332   O    0.61221   0.30608   0.91653   1.000
    O1333   O    0.11222   0.80607   0.91653   1.000
    O1334   O    0.11222   0.30608   0.91653   1.000
    O1335   O    0.61221   0.80608   0.91653   1.000
    O1336   O    0.04821   0.27383   0.91656   1.000
    O1337   O    0.04821   0.77382   0.91656   1.000
    O1338   O    0.54820   0.27383   0.91656   1.000
    O1339   O    0.54820   0.77382   0.91656   1.000
    O1340   O    0.99579   0.75418   0.94219   1.000
    O1341   O    0.49579   0.75419   0.94219   1.000
    O1342   O    0.49579   0.25419   0.94219   1.000
    O1343   O    0.99579   0.25419   0.94219   1.000
    O1344   O    0.25415   0.41465   0.95294   1.000
    O1345   O    0.75414   0.91464   0.95296   1.000
    O1346   O    0.75414   0.41465   0.95296   1.000
    O1347   O    0.25415   0.91464   0.95296   1.000
    O1348   O    0.38221   0.37031   0.93620   1.000
    O1349   O    0.43264   0.38673   0.94231   1.000
    O1350   O    0.38221   0.87030   0.93620   1.000
    O1351   O    0.43264   0.88672   0.94226   1.000
    O1352   O    0.88220   0.37031   0.93620   1.000
    O1353   O    0.93263   0.38673   0.94230   1.000
    O1354   O    0.88220   0.87030   0.93620   1.000
    O1355   O    0.93263   0.88672   0.94230   1.000
    O1356   O    0.26078   0.21198   0.94875   1.000
    O1357   O    0.26078   0.71197   0.94875   1.000
    O1358   O    0.76077   0.21198   0.94875   1.000
    O1359   O    0.76077   0.71197   0.94875   1.000
    O1360   O    0.77736   0.68655   0.96160   1.000
    O1361   O    0.80146   0.73455   0.97684   1.000
    O1362   O    0.27736   0.18656   0.96160   1.000
    O1363   O    0.30146   0.23456   0.97685   1.000
    O1364   O    0.27737   0.68655   0.96160   1.000
    O1365   O    0.30147   0.73455   0.97680   1.000
    O1366   O    0.77735   0.18656   0.96160   1.000
    O1367   O    0.80146   0.23456   0.97684   1.000
    O1368   O    0.30607   0.37261   0.93199   1.000
    O1369   O    0.30607   0.87260   0.93201   1.000
    O1370   O    0.80606   0.37261   0.93201   1.000
    O1371   O    0.80606   0.87260   0.93201   1.000
    O1372   O    0.25943   0.35020   0.95840   1.000
    O1373   O    0.25943   0.85019   0.95842   1.000
    O1374   O    0.75942   0.35020   0.95842   1.000
    O1375   O    0.75942   0.85019   0.95842   1.000
    O1376   O    0.06596   0.19366   0.59841   1.000
    O1377   O    0.06597   0.69365   0.59842   1.000
    O1378   O    0.56595   0.19366   0.59841   1.000
    O1379   O    0.56595   0.69365   0.59842   1.000
    O1380   O    0.08994   0.24051   0.62521   1.000
    O1381   O    0.08994   0.74050   0.62522   1.000
    O1382   O    0.58993   0.24051   0.62521   1.000
    O1383   O    0.58993   0.74050   0.62522   1.000
    O1384   O    0.12735   0.43371   0.26536   1.000
    O1385   O    0.12735   0.93370   0.26536   1.000
    O1386   O    0.62734   0.43371   0.26536   1.000
    O1387   O    0.62734   0.93370   0.26536   1.000
    O1388   O    0.14995   0.40927   0.29221   1.000
    O1389   O    0.14995   0.90926   0.29221   1.000
    O1390   O    0.64994   0.40927   0.29221   1.000
    O1391   O    0.64994   0.90926   0.29221   1.000
    O1392   O    0.19370   0.12718   0.43201   1.000
    O1393   O    0.19370   0.62717   0.43201   1.000
    O1394   O    0.69369   0.12718   0.43201   1.000
    O1395   O    0.69369   0.62718   0.43201   1.000
    O1396   O    0.24040   0.14965   0.45893   1.000
    O1397   O    0.24040   0.64964   0.45893   1.000
    O1398   O    0.74039   0.14966   0.45892   1.000
    O1399   O    0.74039   0.64964   0.45893   1.000
    O1400   O    0.43418   0.30627   0.09832   1.000
    O1401   O    0.43418   0.80626   0.09832   1.000
    O1402   O    0.93417   0.30627   0.09832   1.000
    O1403   O    0.93417   0.80626   0.09832   1.000
    O1404   O    0.41017   0.25947   0.12515   1.000
    O1405   O    0.41017   0.75946   0.12515   1.000
    O1406   O    0.91016   0.25947   0.12515   1.000
    O1407   O    0.91016   0.75946   0.12515   1.000
    O1408   O    0.37268   0.06644   0.76543   1.000
    O1409   O    0.37268   0.56643   0.76543   1.000
    O1410   O    0.87267   0.06644   0.76543   1.000
    O1411   O    0.87267   0.56643   0.76543   1.000
    O1412   O    0.34996   0.09080   0.79210   1.000
    O1413   O    0.34996   0.59079   0.79210   1.000
    O1414   O    0.84995   0.09080   0.79210   1.000
    O1415   O    0.84995   0.59079   0.79210   1.000
    O1416   O    0.43376   0.12748   0.73466   1.000
    O1417   O    0.43376   0.62747   0.73466   1.000
    O1418   O    0.93375   0.12748   0.73466   1.000
    O1419   O    0.93375   0.62747   0.73466   1.000
    O1420   O    0.40944   0.15016   0.70776   1.000
    O1421   O    0.40944   0.65015   0.70776   1.000
    O1422   O    0.90943   0.15016   0.70776   1.000
    O1423   O    0.90943   0.65015   0.70776   1.000
    O1424   O    0.37303   0.30637   0.06800   1.000
    O1425   O    0.37303   0.80636   0.06800   1.000
    O1426   O    0.87302   0.30637   0.06800   1.000
    O1427   O    0.87302   0.80636   0.06800   1.000
    O1428   O    0.35018   0.25939   0.04144   1.000
    O1429   O    0.35019   0.75938   0.04140   1.000
    O1430   O    0.85018   0.25939   0.04144   1.000
    O1431   O    0.85018   0.75938   0.04144   1.000
    O1432   O    0.19375   0.06602   0.40165   1.000
    O1433   O    0.19375   0.56601   0.40165   1.000
    O1434   O    0.69373   0.06602   0.40165   1.000
    O1435   O    0.69374   0.56601   0.40165   1.000
    O1436   O    0.24049   0.09003   0.37476   1.000
    O1437   O    0.24049   0.59003   0.37476   1.000
    O1438   O    0.74048   0.09003   0.37476   1.000
    O1439   O    0.74048   0.59003   0.37476   1.000
    O1440   O    0.06637   0.37267   0.23456   1.000
    O1441   O    0.06637   0.87266   0.23456   1.000
    O1442   O    0.56636   0.37267   0.23456   1.000
    O1443   O    0.56636   0.87266   0.23456   1.000
    O1444   O    0.09066   0.34992   0.20783   1.000
    O1445   O    0.09066   0.84991   0.20783   1.000
    O1446   O    0.59065   0.34992   0.20783   1.000
    O1447   O    0.59065   0.84991   0.20783   1.000
    O1448   O    0.12698   0.19348   0.56795   1.000
    O1449   O    0.12698   0.69346   0.56799   1.000
    O1450   O    0.62697   0.19348   0.56795   1.000
    O1451   O    0.62697   0.69346   0.56799   1.000
    O1452   O    0.14975   0.24044   0.54125   1.000
    O1453   O    0.14975   0.74043   0.54126   1.000
    O1454   O    0.64974   0.24044   0.54125   1.000
    O1455   O    0.64974   0.74043   0.54126   1.000
    O1456   O    0.30603   0.43391   0.90172   1.000
    O1457   O    0.30603   0.93390   0.90174   1.000
    O1458   O    0.80602   0.43391   0.90174   1.000
    O1459   O    0.80602   0.93390   0.90174   1.000
    O1460   O    0.25935   0.40990   0.87475   1.000
    O1461   O    0.25935   0.90989   0.87477   1.000
    O1462   O    0.75934   0.40990   0.87477   1.000
    O1463   O    0.75934   0.90989   0.87477   1.000
loop_
    _geom_bond_atom_site_label_1
    _geom_bond_atom_site_label_2
    _geom_bond_distance
    _geom_bond_site_symmetry_2
    _ccdc_geom_bond_type
    C607   O696      0.73808      .   S
    C27    O696      0.73808      .   S
    C607   O697      0.72063      .   S
    C347   O697      0.72063      .   S
    C604   O698      0.73807      .   S
    C24    O698      0.73807      .   S
    C604   O699      0.72065      .   S
    C344   O699      0.72065      .   S
    C26    O700      0.73808      .   S
    C606   O700      0.73808      .   S
    C26    O701      0.73899      .   S
    C658   O701      0.73899      .   S
    C26    O702      0.73636  1_554   S
    C602   O702      0.73636      .   S
    C26    O703      0.73815  1_554   S
    C662   O703      0.73815      .   S
    C606   O704      0.72063      .   S
    C346   O704      0.72063      .   S
    C25    O705      0.73807      .   S
    C605   O705      0.73807      .   S
    C25    O706      0.73899      .   S
    C657   O706      0.73899      .   S
    C25    O707      0.73636  1_554   S
    C601   O707      0.73636      .   S
    C25    O708      0.73817  1_554   S
    C661   O708      0.73817      .   S
    C605   O709      0.72063      .   S
    C345   O709      0.72063      .   S
    C27    O710      0.73709      .   S
    C659   O710      0.73709      .   S
    C27    O711      0.73820  1_554   S
    C603   O711      0.73820      .   S
    C27    O712      0.73825  1_554   S
    C663   O712      0.73825      .   S
    C24    O713      0.73712      .   S
    C656   O713      0.73712      .   S
    C24    O714      0.73818  1_554   S
    C600   O714      0.73818      .   S
    C24    O715      0.73824  1_554   S
    C660   O715      0.73824      .   S
    C529   O716      1.20271      .   S
    C17    O716      1.20271      .   S
    C529   O717      0.58633  1_554   S
    C337   O717      0.58633      .   S
    C528   O718      1.20270      .   S
    C16    O718      1.20270      .   S
    C528   O719      0.58633  1_554   S
    C336   O719      0.58633      .   S
    C530   O720      1.20270      .   S
    C18    O720      1.20270      .   S
    C530   O721      0.58633  1_554   S
    C338   O721      0.58633      .   S
    C531   O722      1.20271      .   S
    C19    O722      1.20271      .   S
    C531   O723      0.58633  1_554   S
    C339   O723      0.58633      .   S
    C60    O724      0.54883      .   S
    C344   O724      0.54883      .   S
    C61    O725      0.54884      .   S
    C345   O725      0.54884      .   S
    C62    O726      0.54884      .   S
    C346   O726      0.54884      .   S
    C63    O727      0.54884      .   S
    C347   O727      0.54884      .   S
    C420   O728      0.70127      .   S
    C513   O728      0.70127      .   S
    C420   O729      0.58630      .   S
    C556   O729      0.58630  1_556   S
    C423   O730      0.70120      .   S
    C514   O730      0.70120  1_545   S
    C423   O731      0.58650      .   S
    C559   O731      0.58650  1_556   S
    C422   O732      0.70108      .   S
    C515   O732      0.70108      .   S
    C422   O733      0.58650      .   S
    C558   O733      0.58650  1_556   S
    C421   O734      0.70130      .   S
    C512   O734      0.70130  1_545   S
    C421   O735      0.58650      .   S
    C557   O735      0.58650  1_556   S
    C224   O736      0.55181      .   S
    C424   O736      0.55181      .   S
    C227   O737      0.55140      .   S
    C427   O737      0.55140      .   S
    C226   O738      0.55140      .   S
    C426   O738      0.55140      .   S
    C225   O739      0.55141      .   S
    C425   O739      0.55141      .   S
    C345   O740      0.55037      .   S
    C69    O740      0.55037      .   S
    C345   O741      0.55131      .   S
    C65    O741      0.55131      .   S
    C347   O742      0.55036      .   S
    C71    O742      0.55036      .   S
    C347   O743      0.55132      .   S
    C67    O743      0.55132      .   S
    C344   O744      0.55037      .   S
    C68    O744      0.55037      .   S
    C344   O745      0.55140      .   S
    C64    O745      0.55140      .   S
    C346   O746      0.55036      .   S
    C70    O746      0.55036      .   S
    C346   O747      0.55132      .   S
    C66    O747      0.55132      .   S
    C659   O748      0.71030      .   S
    C427   O748      0.71030      .   S
    C658   O749      0.71031      .   S
    C426   O749      0.71031      .   S
    C657   O750      0.71030      .   S
    C425   O750      0.71030      .   S
    C656   O751      0.71029      .   S
    C424   O751      0.71029      .   S
    C146   O752      0.54897      .   S
    C390   O752      0.54897      .   S
    C144   O753      0.54897      .   S
    C388   O753      0.54897      .   S
    C145   O754      0.54897      .   S
    C389   O754      0.54897      .   S
    C147   O755      0.54897      .   S
    C391   O755      0.54897      .   S
    C427   O756      0.55124      .   S
    C223   O756      0.55124      .   S
    C427   O757      0.54042      .   S
    C219   O757      0.54042      .   S
    C426   O758      0.55124      .   S
    C222   O758      0.55124      .   S
    C426   O759      0.54042      .   S
    C218   O759      0.54042      .   S
    C425   O760      0.55124      .   S
    C221   O760      0.55124      .   S
    C425   O761      0.54899      .   S
    C217   O761      0.54899      .   S
    C424   O762      0.55124      .   S
    C220   O762      0.55124      .   S
    C424   O763      0.54899      .   S
    C216   O763      0.54899      .   S
    C150   O764      0.55124      .   S
    C390   O764      0.55124      .   S
    C151   O765      0.55123      .   S
    C391   O765      0.55123      .   S
    C149   O766      0.55124      .   S
    C389   O766      0.55124      .   S
    C148   O767      0.55124      .   S
    C388   O767      0.55124      .   S
    C283   O768      0.55131      .   S
    C455   O768      0.55131      .   S
    C282   O769      0.55131      .   S
    C454   O769      0.55131      .   S
    C281   O770      0.55131      .   S
    C453   O770      0.55131      .   S
    C280   O771      0.55131      .   S
    C452   O771      0.55131      .   S
    C515   O772      0.70125      .   S
    C519   O772      0.70125      .   S
    C515   O773      0.70129      .   S
    C386   O773      0.70129      .   S
    C16    O774      1.20324      .   S
    C592   O774      1.20324      .   S
    C17    O775      1.20325      .   S
    C593   O775      1.20325      .   S
    C18    O776      1.20324      .   S
    C594   O776      1.20324      .   S
    C19    O777      1.20324      .   S
    C595   O777      1.20324      .   S
    C513   O778      0.70125      .   S
    C517   O778      0.70125      .   S
    C513   O779      0.70129      .   S
    C384   O779      0.70129      .   S
    C514   O780      0.70124      .   S
    C518   O780      0.70124      .   S
    C514   O781      0.70136  1_545   S
    C387   O781      0.70136      .   S
    C512   O782      0.70124      .   S
    C516   O782      0.70124      .   S
    C512   O783      0.70127  1_545   S
    C385   O783      0.70127      .   S
    C518   O784      0.58618      .   S
    C594   O784      0.58618      .   S
    C519   O785      0.58617      .   S
    C595   O785      0.58617      .   S
    C517   O786      0.58617      .   S
    C593   O786      0.58617      .   S
    C516   O787      0.58618      .   S
    C592   O787      0.58618      .   S
    C388   O788      0.71011      .   S
    C634   O788      0.71011  1_655   S
    C388   O789      0.55142      .   S
    C152   O789      0.55142      .   S
    C389   O790      0.71011      .   S
    C635   O790      0.71011  1_655   S
    C389   O791      0.55141      .   S
    C153   O791      0.55141      .   S
    C390   O792      0.71004      .   S
    C632   O792      0.71004      .   S
    C390   O793      0.55141      .   S
    C154   O793      0.55141      .   S
    C391   O794      0.71004      .   S
    C633   O794      0.71004      .   S
    C391   O795      0.55141      .   S
    C155   O795      0.55141      .   S
    C284   O796      0.55037      .   S
    C452   O796      0.55037      .   S
    C285   O797      0.55037      .   S
    C453   O797      0.55037      .   S
    C286   O798      0.55037      .   S
    C454   O798      0.55037      .   S
    C287   O799      0.55037      .   S
    C455   O799      0.55037      .   S
    C632   O800      0.73844      .   S
    C42    O800      0.73844      .   S
    C633   O801      0.73844      .   S
    C43    O801      0.73844      .   S
    C634   O802      0.73854      .   S
    C40    O802      0.73854  1_455   S
    C635   O803      0.73854      .   S
    C41    O803      0.73854  1_455   S
    C452   O804      0.54889      .   S
    C276   O804      0.54889      .   S
    C452   O805      0.71073      .   S
    C676   O805      0.71073      .   S
    C455   O806      0.54889      .   S
    C279   O806      0.54889      .   S
    C455   O807      0.71073      .   S
    C679   O807      0.71073      .   S
    C454   O808      0.54888      .   S
    C278   O808      0.54888      .   S
    C454   O809      0.71073      .   S
    C678   O809      0.71073      .   S
    C453   O810      0.54888      .   S
    C277   O810      0.54888      .   S
    C453   O811      0.71073      .   S
    C677   O811      0.71073      .   S
    C386   O812      0.58611      .   S
    C546   O812      0.58611      .   S
    C384   O813      0.58612      .   S
    C544   O813      0.58612      .   S
    C385   O814      0.58612      .   S
    C545   O814      0.58612      .   S
    C387   O815      0.58612      .   S
    C547   O815      0.58612      .   S
    C565   O816      0.58612      .   S
    C445   O816      0.58612      .   S
    C566   O817      0.58611      .   S
    C446   O817      0.58611      .   S
    C564   O818      0.58611      .   S
    C444   O818      0.58611      .   S
    C567   O819      0.58611      .   S
    C447   O819      0.58611      .   S
    C677   O820      0.73784      .   S
    C41    O820      0.73784      .   S
    C676   O821      0.73783      .   S
    C40    O821      0.73783      .   S
    C679   O822      0.73783      .   S
    C43    O822      0.73783      .   S
    C678   O823      0.73783      .   S
    C42    O823      0.73783      .   S
    C43    O824      0.73809      .   S
    C637   O824      0.73809      .   S
    C43    O825      0.73859      .   S
    C675   O825      0.73859      .   S
    C42    O826      0.73809      .   S
    C636   O826      0.73809      .   S
    C42    O827      0.73859      .   S
    C674   O827      0.73859      .   S
    C41    O828      0.73820  1_455   S
    C639   O828      0.73820      .   S
    C41    O829      0.73859      .   S
    C673   O829      0.73859      .   S
    C40    O830      0.73820  1_455   S
    C638   O830      0.73820      .   S
    C40    O831      0.73859      .   S
    C672   O831      0.73859      .   S
    C639   O832      0.71329      .   S
    C395   O832      0.71329      .   S
    C636   O833      0.71329      .   S
    C392   O833      0.71329      .   S
    C637   O834      0.71329      .   S
    C393   O834      0.71329      .   S
    C638   O835      0.71329      .   S
    C394   O835      0.71329      .   S
    C547   O836      1.20260      .   S
    C11    O836      1.20260      .   S
    C546   O837      1.20260      .   S
    C10    O837      1.20260      .   S
    C545   O838      1.20260      .   S
    C9     O838      1.20260      .   S
    C544   O839      1.20260      .   S
    C8     O839      1.20260      .   S
    C159   O840      0.54888      .   S
    C395   O840      0.54888      .   S
    C158   O841      0.54888      .   S
    C394   O841      0.54888      .   S
    C157   O842      0.54888      .   S
    C393   O842      0.54888      .   S
    C156   O843      0.54888      .   S
    C392   O843      0.54888      .   S
    C444   O844      0.70130      .   S
    C496   O844      0.70130      .   S
    C445   O845      0.70129      .   S
    C497   O845      0.70129      .   S
    C446   O846      0.70130      .   S
    C498   O846      0.70130      .   S
    C447   O847      0.70130      .   S
    C499   O847      0.70130      .   S
    C272   O848      0.55136      .   S
    C448   O848      0.55136      .   S
    C273   O849      0.55136      .   S
    C449   O849      0.55136      .   S
    C274   O850      0.55136      .   S
    C450   O850      0.55136      .   S
    C275   O851      0.55136      .   S
    C451   O851      0.55136      .   S
    C392   O852      0.55036      .   S
    C164   O852      0.55036      .   S
    C392   O853      0.55134      .   S
    C160   O853      0.55134      .   S
    C393   O854      0.55036      .   S
    C165   O854      0.55036      .   S
    C393   O855      0.55134      .   S
    C161   O855      0.55134      .   S
    C394   O856      0.55036      .   S
    C166   O856      0.55036      .   S
    C394   O857      0.55135      .   S
    C162   O857      0.55135      .   S
    C395   O858      0.55036      .   S
    C167   O858      0.55036      .   S
    C395   O859      0.55135      .   S
    C163   O859      0.55135      .   S
    C675   O860      0.71008      .   S
    C449   O860      0.71008      .   S
    C672   O861      0.71032  1_455   S
    C450   O861      0.71032      .   S
    C673   O862      0.71032  1_455   S
    C451   O862      0.71032      .   S
    C674   O863      0.71009      .   S
    C448   O863      0.71009      .   S
    C96    O864      0.54902      .   S
    C364   O864      0.54902      .   S
    C99    O865      0.54902      .   S
    C367   O865      0.54902      .   S
    C97    O866      0.54902      .   S
    C365   O866      0.54902      .   S
    C98    O867      0.54902      .   S
    C366   O867      0.54902      .   S
    C448   O868      0.55119      .   S
    C268   O868      0.55119      .   S
    C448   O869      0.54896      .   S
    C264   O869      0.54896      .   S
    C449   O870      0.55120      .   S
    C269   O870      0.55120      .   S
    C449   O871      0.54895      .   S
    C265   O871      0.54895      .   S
    C450   O872      0.55119      .   S
    C270   O872      0.55119      .   S
    C450   O873      0.54896      .   S
    C266   O873      0.54896      .   S
    C451   O874      0.55120      .   S
    C271   O874      0.55120      .   S
    C451   O875      0.54895      .   S
    C267   O875      0.54895      .   S
    C103   O876      0.55120      .   S
    C367   O876      0.55120      .   S
    C100   O877      0.55120      .   S
    C364   O877      0.55120      .   S
    C101   O878      0.55120      .   S
    C365   O878      0.55120      .   S
    C102   O879      0.55120      .   S
    C366   O879      0.55120      .   S
    C259   O880      0.55138      .   S
    C443   O880      0.55138      .   S
    C258   O881      0.55138      .   S
    C442   O881      0.55138      .   S
    C257   O882      0.55138      .   S
    C441   O882      0.55138      .   S
    C256   O883      0.55138      .   S
    C440   O883      0.55138      .   S
    C584   O884      0.58617      .   S
    C500   O884      0.58617      .   S
    C584   O885      1.20209      .   S
    C8     O885      1.20209      .   S
    C585   O886      0.58616      .   S
    C501   O886      0.58616      .   S
    C585   O887      1.20209      .   S
    C9     O887      1.20209      .   S
    C586   O888      0.58617      .   S
    C502   O888      0.58617      .   S
    C586   O889      1.20209      .   S
    C10    O889      1.20209      .   S
    C587   O890      0.58616      .   S
    C503   O890      0.58616      .   S
    C587   O891      1.20209      .   S
    C11    O891      1.20209      .   S
    C503   O892      0.70123      .   S
    C499   O892      0.70123      .   S
    C500   O893      0.70122      .   S
    C496   O893      0.70122      .   S
    C502   O894      0.70122      .   S
    C498   O894      0.70122      .   S
    C501   O895      0.70123      .   S
    C497   O895      0.70123      .   S
    C496   O896      0.70115      .   S
    C360   O896      0.70115      .   S
    C499   O897      0.70115      .   S
    C363   O897      0.70115      .   S
    C498   O898      0.70115      .   S
    C362   O898      0.70115      .   S
    C497   O899      0.70115      .   S
    C361   O899      0.70115      .   S
    C364   O900      0.71026      .   S
    C617   O900      0.71026  1_565   S
    C364   O901      0.55132      .   S
    C104   O901      0.55132      .   S
    C365   O902      0.71004      .   S
    C616   O902      0.71004      .   S
    C365   O903      0.55132      .   S
    C105   O903      0.55132      .   S
    C366   O904      0.71027      .   S
    C619   O904      0.71027  1_565   S
    C366   O905      0.55132      .   S
    C106   O905      0.55132      .   S
    C367   O906      0.71005      .   S
    C618   O906      0.71005      .   S
    C367   O907      0.55131      .   S
    C107   O907      0.55131      .   S
    C260   O908      0.55056      .   S
    C440   O908      0.55056      .   S
    C262   O909      0.55056      .   S
    C442   O909      0.55056      .   S
    C263   O910      0.55038      .   S
    C443   O910      0.55038      .   S
    C261   O911      0.55037      .   S
    C441   O911      0.55037      .   S
    C617   O912      0.73885      .   S
    C32    O912      0.73885      .   S
    C618   O913      0.73889      .   S
    C35    O913      0.73889      .   S
    C619   O914      0.73885      .   S
    C34    O914      0.73885      .   S
    C616   O915      0.73889      .   S
    C33    O915      0.73889      .   S
    C443   O916      0.54886      .   S
    C255   O916      0.54886      .   S
    C443   O917      0.71077      .   S
    C671   O917      0.71077      .   S
    C442   O918      0.54886      .   S
    C254   O918      0.54886      .   S
    C442   O919      0.71077      .   S
    C670   O919      0.71077      .   S
    C441   O920      0.54886      .   S
    C253   O920      0.54886      .   S
    C441   O921      0.71077      .   S
    C669   O921      0.71077      .   S
    C440   O922      0.54886      .   S
    C252   O922      0.54886      .   S
    C440   O923      0.71076      .   S
    C668   O923      0.71076      .   S
    C360   O924      0.58616      .   S
    C536   O924      0.58616      .   S
    C361   O925      0.58616      .   S
    C537   O925      0.58616      .   S
    C362   O926      0.58617      .   S
    C538   O926      0.58617      .   S
    C363   O927      0.58615      .   S
    C539   O927      0.58615      .   S
    C563   O928      0.58619      .   S
    C435   O928      0.58619      .   S
    C562   O929      0.58619      .   S
    C434   O929      0.58619      .   S
    C561   O930      0.58619      .   S
    C433   O930      0.58619      .   S
    C560   O931      0.58619      .   S
    C432   O931      0.58619      .   S
    C669   O932      0.73804      .   S
    C33    O932      0.73804      .   S
    C670   O933      0.73804      .   S
    C34    O933      0.73804  1_565   S
    C671   O934      0.73804      .   S
    C35    O934      0.73804      .   S
    C668   O935      0.73804      .   S
    C32    O935      0.73804  1_565   S
    C35    O936      0.73811      .   S
    C622   O936      0.73811      .   S
    C35    O937      0.73834      .   S
    C667   O937      0.73834      .   S
    C34    O938      0.73835      .   S
    C623   O938      0.73835      .   S
    C34    O939      0.73833  1_565   S
    C666   O939      0.73833      .   S
    C33    O940      0.73810      .   S
    C620   O940      0.73810      .   S
    C33    O941      0.73834      .   S
    C665   O941      0.73834      .   S
    C32    O942      0.73834      .   S
    C621   O942      0.73834      .   S
    C32    O943      0.73834  1_565   S
    C664   O943      0.73834      .   S
    C620   O944      0.71083      .   S
    C368   O944      0.71083      .   S
    C621   O945      0.71083      .   S
    C369   O945      0.71083      .   S
    C622   O946      0.71083      .   S
    C370   O946      0.71083      .   S
    C623   O947      0.71082      .   S
    C371   O947      0.71082      .   S
    C539   O948      1.20185      .   S
    C15    O948      1.20185      .   S
    C538   O949      1.20184      .   S
    C14    O949      1.20184      .   S
    C537   O950      1.20184      .   S
    C13    O950      1.20184      .   S
    C536   O951      1.20185      .   S
    C12    O951      1.20185      .   S
    C109   O952      0.54888      .   S
    C369   O952      0.54888      .   S
    C108   O953      0.54888      .   S
    C368   O953      0.54888      .   S
    C110   O954      0.54889      .   S
    C370   O954      0.54889      .   S
    C111   O955      0.54889      .   S
    C371   O955      0.54889      .   S
    C435   O956      0.70126      .   S
    C505   O956      0.70126      .   S
    C434   O957      0.70126      .   S
    C504   O957      0.70126      .   S
    C432   O958      0.70133      .   S
    C506   O958      0.70133  1_655   S
    C433   O959      0.70133      .   S
    C507   O959      0.70133  1_655   S
    C250   O960      0.55136      .   S
    C438   O960      0.55136      .   S
    C249   O961      0.55135      .   S
    C437   O961      0.55135      .   S
    C248   O962      0.55136      .   S
    C436   O962      0.55136      .   S
    C251   O963      0.55136      .   S
    C439   O963      0.55136      .   S
    C371   O964      0.55033      .   S
    C119   O964      0.55033      .   S
    C371   O965      0.55130      .   S
    C115   O965      0.55130      .   S
    C370   O966      0.55033      .   S
    C118   O966      0.55033      .   S
    C370   O967      0.55130      .   S
    C114   O967      0.55130      .   S
    C369   O968      0.55033      .   S
    C117   O968      0.55033      .   S
    C369   O969      0.55130      .   S
    C113   O969      0.55130      .   S
    C368   O970      0.55033      .   S
    C116   O970      0.55033      .   S
    C368   O971      0.55130      .   S
    C112   O971      0.55130      .   S
    C664   O972      0.71007  1_545   S
    C437   O972      0.71007      .   S
    C665   O973      0.71001      .   S
    C436   O973      0.71001      .   S
    C666   O974      0.71007  1_545   S
    C439   O974      0.71007      .   S
    C667   O975      0.71002      .   S
    C438   O975      0.71002      .   S
    C120   O976      0.54902      .   S
    C376   O976      0.54902      .   S
    C121   O977      0.54902      .   S
    C377   O977      0.54902      .   S
    C122   O978      0.54893      .   S
    C378   O978      0.54893      .   S
    C123   O979      0.54894      .   S
    C379   O979      0.54894      .   S
    C439   O980      0.55123      .   S
    C247   O980      0.55123      .   S
    C439   O981      0.54895      .   S
    C243   O981      0.54895      .   S
    C438   O982      0.55124      .   S
    C246   O982      0.55124      .   S
    C438   O983      0.54895      .   S
    C242   O983      0.54895      .   S
    C437   O984      0.55124      .   S
    C245   O984      0.55124      .   S
    C437   O985      0.54895      .   S
    C241   O985      0.54895      .   S
    C436   O986      0.55124      .   S
    C244   O986      0.55124      .   S
    C436   O987      0.54894      .   S
    C240   O987      0.54894      .   S
    C126   O988      0.55135      .   S
    C378   O988      0.55135      .   S
    C124   O989      0.55126      .   S
    C376   O989      0.55126      .   S
    C125   O990      0.55127      .   S
    C377   O990      0.55127      .   S
    C127   O991      0.55127      .   S
    C379   O991      0.55127      .   S
    C305   O992      0.55168      .   S
    C465   O992      0.55168      .   S
    C306   O993      0.54284      .   S
    C466   O993      0.54284      .   S
    C304   O994      0.55138      .   S
    C464   O994      0.55138      .   S
    C307   O995      0.55130      .   S
    C467   O995      0.55130      .   S
    C590   O996      0.58622      .   S
    C510   O996      0.58622      .   S
    C591   O997      0.58622      .   S
    C511   O997      0.58622      .   S
    C589   O998      0.58621      .   S
    C509   O998      0.58621      .   S
    C588   O999      0.58621      .   S
    C508   O999      0.58621      .   S
    C510   O1000     0.70133      .   S
    C506   O1000     0.70133      .   S
    C509   O1001     0.70133      .   S
    C505   O1001     0.70133      .   S
    C508   O1002     0.70133      .   S
    C504   O1002     0.70133      .   S
    C511   O1003     0.70133      .   S
    C507   O1003     0.70133      .   S
    C506   O1004     0.70136  1_655   S
    C372   O1004     0.70136      .   S
    C504   O1005     0.70122      .   S
    C374   O1005     0.70122      .   S
    C507   O1006     0.70137  1_655   S
    C373   O1006     0.70137      .   S
    C505   O1007     0.70123      .   S
    C375   O1007     0.70123      .   S
    C13    O1008     1.20148      .   S
    C569   O1008     1.20148      .   S
    C12    O1009     1.20147      .   S
    C568   O1009     1.20147      .   S
    C15    O1010     1.20150      .   S
    C571   O1010     1.20150      .   S
    C14    O1011     1.20146      .   S
    C570   O1011     1.20146      .   S
    C378   O1012     0.71000      .   S
    C626   O1012     0.71000      .   S
    C378   O1013     0.55078      .   S
    C130   O1013     0.55078      .   S
    C376   O1014     0.70996      .   S
    C624   O1014     0.70996      .   S
    C376   O1015     0.55134      .   S
    C128   O1015     0.55134      .   S
    C377   O1016     0.70997      .   S
    C625   O1016     0.70997      .   S
    C377   O1017     0.55133      .   S
    C129   O1017     0.55133      .   S
    C379   O1018     0.70996      .   S
    C627   O1018     0.70996      .   S
    C379   O1019     0.55133      .   S
    C131   O1019     0.55133      .   S
    C308   O1020     0.55041      .   S
    C464   O1020     0.55041      .   S
    C309   O1021     0.55041      .   S
    C465   O1021     0.55041      .   S
    C310   O1022     0.54825      .   S
    C466   O1022     0.54825      .   S
    C311   O1023     0.55038      .   S
    C467   O1023     0.55038      .   S
    C624   O1024     0.73796      .   S
    C36    O1024     0.73796      .   S
    C625   O1025     0.73795      .   S
    C37    O1025     0.73795      .   S
    C626   O1026     0.73798      .   S
    C38    O1026     0.73798      .   S
    C627   O1027     0.73793      .   S
    C39    O1027     0.73793      .   S
    C466   O1028     0.55212      .   S
    C302   O1028     0.55212      .   S
    C466   O1029     0.71838      .   S
    C686   O1029     0.71838      .   S
    C464   O1030     0.54881      .   S
    C300   O1030     0.54881      .   S
    C464   O1031     0.71082      .   S
    C684   O1031     0.71082      .   S
    C465   O1032     0.54885      .   S
    C301   O1032     0.54885      .   S
    C465   O1033     0.71090      .   S
    C685   O1033     0.71090      .   S
    C467   O1034     0.54884      .   S
    C303   O1034     0.54884      .   S
    C467   O1035     0.71088      .   S
    C687   O1035     0.71088      .   S
    C373   O1036     0.58615      .   S
    C541   O1036     0.58615      .   S
    C372   O1037     0.58615      .   S
    C540   O1037     0.58615      .   S
    C374   O1038     0.58615      .   S
    C542   O1038     0.58615      .   S
    C375   O1039     0.58615      .   S
    C543   O1039     0.58615      .   S
    C568   O1040     0.58626      .   S
    C456   O1040     0.58626      .   S
    C570   O1041     0.58626      .   S
    C458   O1041     0.58626      .   S
    C571   O1042     0.58530      .   S
    C459   O1042     0.58530      .   S
    C569   O1043     0.58626      .   S
    C457   O1043     0.58626      .   S
    C686   O1044     0.73833      .   S
    C38    O1044     0.73833      .   S
    C684   O1045     0.73833      .   S
    C36    O1045     0.73833      .   S
    C687   O1046     0.73833      .   S
    C39    O1046     0.73833      .   S
    C685   O1047     0.73833      .   S
    C37    O1047     0.73833      .   S
    C38    O1048     0.73819      .   S
    C630   O1048     0.73819      .   S
    C38    O1049     0.73735      .   S
    C682   O1049     0.73735      .   S
    C39    O1050     0.73818      .   S
    C631   O1050     0.73818      .   S
    C39    O1051     0.73806      .   S
    C683   O1051     0.73806      .   S
    C37    O1052     0.73818      .   S
    C629   O1052     0.73818      .   S
    C37    O1053     0.73804      .   S
    C681   O1053     0.73804      .   S
    C36    O1054     0.73818      .   S
    C628   O1054     0.73818      .   S
    C36    O1055     0.73736      .   S
    C680   O1055     0.73736      .   S
    C630   O1056     0.71078      .   S
    C382   O1056     0.71078      .   S
    C628   O1057     0.71080      .   S
    C380   O1057     0.71080      .   S
    C629   O1058     0.71081      .   S
    C381   O1058     0.71081      .   S
    C631   O1059     0.71075      .   S
    C383   O1059     0.71075      .   S
    C540   O1060     1.20252      .   S
    C4     O1060     1.20252      .   S
    C541   O1061     1.20259      .   S
    C5     O1061     1.20259      .   S
    C542   O1062     1.20253      .   S
    C6     O1062     1.20253      .   S
    C543   O1063     1.20258      .   S
    C7     O1063     1.20258      .   S
    C134   O1064     0.54883      .   S
    C382   O1064     0.54883      .   S
    C133   O1065     0.54885      .   S
    C381   O1065     0.54885      .   S
    C132   O1066     0.54886      .   S
    C380   O1066     0.54886      .   S
    C135   O1067     0.54882      .   S
    C383   O1067     0.54882      .   S
    C459   O1068     0.70206      .   S
    C490   O1068     0.70206      .   S
    C458   O1069     0.70123      .   S
    C491   O1069     0.70123  1_565   S
    C456   O1070     0.70123      .   S
    C489   O1070     0.70123  1_565   S
    C457   O1071     0.70111      .   S
    C488   O1071     0.70111      .   S
    C296   O1072     0.55156      .   S
    C460   O1072     0.55156      .   S
    C298   O1073     0.55139      .   S
    C462   O1073     0.55139      .   S
    C299   O1074     0.55133      .   S
    C463   O1074     0.55133      .   S
    C297   O1075     0.55133      .   S
    C461   O1075     0.55133      .   S
    C382   O1076     0.55041      .   S
    C142   O1076     0.55041      .   S
    C382   O1077     0.55140      .   S
    C138   O1077     0.55140      .   S
    C380   O1078     0.55039      .   S
    C140   O1078     0.55039      .   S
    C380   O1079     0.55129      .   S
    C136   O1079     0.55129      .   S
    C381   O1080     0.55039      .   S
    C141   O1080     0.55039      .   S
    C381   O1081     0.55137      .   S
    C137   O1081     0.55137      .   S
    C383   O1082     0.55040      .   S
    C143   O1082     0.55040      .   S
    C383   O1083     0.55136      .   S
    C139   O1083     0.55136      .   S
    C680   O1084     0.71028      .   S
    C460   O1084     0.71028      .   S
    C682   O1085     0.71029      .   S
    C462   O1085     0.71029      .   S
    C681   O1086     0.70999      .   S
    C461   O1086     0.70999      .   S
    C683   O1087     0.70999      .   S
    C463   O1087     0.70999      .   S
    C73    O1088     0.54893      .   S
    C353   O1088     0.54893      .   S
    C75    O1089     0.54893      .   S
    C355   O1089     0.54893      .   S
    C74    O1090     0.54894      .   S
    C354   O1090     0.54894      .   S
    C72    O1091     0.54893      .   S
    C352   O1091     0.54893      .   S
    C460   O1092     0.55124      .   S
    C292   O1092     0.55124      .   S
    C460   O1093     0.54895      .   S
    C288   O1093     0.54895      .   S
    C463   O1094     0.55123      .   S
    C295   O1094     0.55123      .   S
    C463   O1095     0.54886      .   S
    C291   O1095     0.54886      .   S
    C462   O1096     0.55124      .   S
    C294   O1096     0.55124      .   S
    C462   O1097     0.54895      .   S
    C290   O1097     0.54895      .   S
    C461   O1098     0.55124      .   S
    C293   O1098     0.55124      .   S
    C461   O1099     0.54895      .   S
    C289   O1099     0.54895      .   S
    C79    O1100     0.55124      .   S
    C355   O1100     0.55124      .   S
    C78    O1101     0.55124      .   S
    C354   O1101     0.55124      .   S
    C77    O1102     0.55125      .   S
    C353   O1102     0.55125      .   S
    C76    O1103     0.55125      .   S
    C352   O1103     0.55125      .   S
    C209   O1104     0.55133      .   S
    C417   O1104     0.55133      .   S
    C210   O1105     0.55134      .   S
    C418   O1105     0.55134      .   S
    C211   O1106     0.55134      .   S
    C419   O1106     0.55134      .   S
    C208   O1107     0.55133      .   S
    C416   O1107     0.55133      .   S
    C4     O1108     1.20257      .   S
    C552   O1108     1.20257      .   S
    C6     O1109     1.20256      .   S
    C554   O1109     1.20256      .   S
    C5     O1110     1.20249      .   S
    C553   O1110     1.20249      .   S
    C7     O1111     1.20249      .   S
    C555   O1111     1.20249      .   S
    C491   O1112     0.70129      .   S
    C495   O1112     0.70129      .   S
    C491   O1113     0.70138  1_565   S
    C350   O1113     0.70138      .   S
    C490   O1114     0.70128      .   S
    C494   O1114     0.70128      .   S
    C490   O1115     0.70132      .   S
    C351   O1115     0.70132      .   S
    C488   O1116     0.70128      .   S
    C492   O1116     0.70128      .   S
    C488   O1117     0.70132      .   S
    C349   O1117     0.70132      .   S
    C489   O1118     0.70128      .   S
    C493   O1118     0.70128      .   S
    C489   O1119     0.70138  1_565   S
    C348   O1119     0.70138      .   S
    C493   O1120     0.58619      .   S
    C581   O1120     0.58619      .   S
    C494   O1121     0.58619      .   S
    C582   O1121     0.58619      .   S
    C492   O1122     0.58619      .   S
    C580   O1122     0.58619      .   S
    C495   O1123     0.58618      .   S
    C583   O1123     0.58618      .   S
    C352   O1124     0.71001      .   S
    C610   O1124     0.71001      .   S
    C352   O1125     0.55136      .   S
    C80    O1125     0.55136      .   S
    C353   O1126     0.71001      .   S
    C611   O1126     0.71001      .   S
    C353   O1127     0.55136      .   S
    C81    O1127     0.55136      .   S
    C354   O1128     0.71009      .   S
    C608   O1128     0.71009  1_455   S
    C354   O1129     0.55136      .   S
    C82    O1129     0.55136      .   S
    C355   O1130     0.71009      .   S
    C609   O1130     0.71009  1_455   S
    C355   O1131     0.55136      .   S
    C83    O1131     0.55136      .   S
    C212   O1132     0.55033      .   S
    C416   O1132     0.55033      .   S
    C215   O1133     0.55033      .   S
    C419   O1133     0.55033      .   S
    C214   O1134     0.55033      .   S
    C418   O1134     0.55033      .   S
    C213   O1135     0.55033      .   S
    C417   O1135     0.55033      .   S
    C611   O1136     0.73838      .   S
    C31    O1136     0.73838      .   S
    C610   O1137     0.73791      .   S
    C30    O1137     0.73791      .   S
    C609   O1138     0.73838      .   S
    C29    O1138     0.73838  1_655   S
    C608   O1139     0.73837      .   S
    C28    O1139     0.73837  1_655   S
    C419   O1140     0.54892      .   S
    C207   O1140     0.54892      .   S
    C419   O1141     0.71086      .   S
    C655   O1141     0.71086      .   S
    C418   O1142     0.54892      .   S
    C206   O1142     0.54892      .   S
    C418   O1143     0.71086      .   S
    C654   O1143     0.71086      .   S
    C417   O1144     0.54893      .   S
    C205   O1144     0.54893      .   S
    C417   O1145     0.71085      .   S
    C653   O1145     0.71085      .   S
    C416   O1146     0.54892      .   S
    C204   O1146     0.54892      .   S
    C416   O1147     0.71086      .   S
    C652   O1147     0.71086      .   S
    C349   O1148     0.58609      .   S
    C533   O1148     0.58609      .   S
    C350   O1149     0.58610      .   S
    C534   O1149     0.58610      .   S
    C351   O1150     0.58610      .   S
    C535   O1150     0.58610      .   S
    C348   O1151     0.58610      .   S
    C532   O1151     0.58610      .   S
    C552   O1152     0.58617      .   S
    C408   O1152     0.58617      .   S
    C553   O1153     0.58616      .   S
    C409   O1153     0.58616      .   S
    C554   O1154     0.58616      .   S
    C410   O1154     0.58616      .   S
    C555   O1155     0.58616      .   S
    C411   O1155     0.58616      .   S
    C655   O1156     0.73830      .   S
    C29    O1156     0.73830      .   S
    C654   O1157     0.73830      .   S
    C28    O1157     0.73830      .   S
    C653   O1158     0.73804      .   S
    C31    O1158     0.73804      .   S
    C652   O1159     0.73804      .   S
    C30    O1159     0.73804      .   S
    C30    O1160     0.73794      .   S
    C614   O1160     0.73794      .   S
    C30    O1161     0.73906      .   S
    C648   O1161     0.73906      .   S
    C31    O1162     0.73793      .   S
    C615   O1162     0.73793      .   S
    C31    O1163     0.73859      .   S
    C649   O1163     0.73859      .   S
    C29    O1164     0.73794  1_655   S
    C613   O1164     0.73794      .   S
    C29    O1165     0.73857      .   S
    C651   O1165     0.73857      .   S
    C28    O1166     0.73792  1_655   S
    C612   O1166     0.73792      .   S
    C28    O1167     0.73857      .   S
    C650   O1167     0.73857      .   S
    C613   O1168     0.71070      .   S
    C357   O1168     0.71070      .   S
    C612   O1169     0.71070      .   S
    C356   O1169     0.71070      .   S
    C614   O1170     0.71071      .   S
    C358   O1170     0.71071      .   S
    C615   O1171     0.71071      .   S
    C359   O1171     0.71071      .   S
    C87    O1172     0.54886      .   S
    C359   O1172     0.54886      .   S
    C86    O1173     0.54886      .   S
    C358   O1173     0.54886      .   S
    C85    O1174     0.54886      .   S
    C357   O1174     0.54886      .   S
    C84    O1175     0.54886      .   S
    C356   O1175     0.54886      .   S
    C408   O1176     0.70116      .   S
    C520   O1176     0.70116      .   S
    C409   O1177     0.70116      .   S
    C521   O1177     0.70116      .   S
    C410   O1178     0.70116      .   S
    C522   O1178     0.70116      .   S
    C411   O1179     0.70117      .   S
    C523   O1179     0.70117      .   S
    C203   O1180     0.55132      .   S
    C415   O1180     0.55132      .   S
    C200   O1181     0.55132      .   S
    C412   O1181     0.55132      .   S
    C202   O1182     0.55133      .   S
    C414   O1182     0.55133      .   S
    C201   O1183     0.55132      .   S
    C413   O1183     0.55132      .   S
    C359   O1184     0.55038      .   S
    C95    O1184     0.55038      .   S
    C359   O1185     0.55139      .   S
    C91    O1185     0.55139      .   S
    C356   O1186     0.55038      .   S
    C92    O1186     0.55038      .   S
    C356   O1187     0.55139      .   S
    C88    O1187     0.55139      .   S
    C357   O1188     0.55039      .   S
    C93    O1188     0.55039      .   S
    C357   O1189     0.55138      .   S
    C89    O1189     0.55138      .   S
    C358   O1190     0.55039      .   S
    C94    O1190     0.55039      .   S
    C358   O1191     0.55138      .   S
    C90    O1191     0.55138      .   S
    C649   O1192     0.71013      .   S
    C415   O1192     0.71013      .   S
    C648   O1193     0.71013      .   S
    C414   O1193     0.71013      .   S
    C650   O1194     0.71036  1_655   S
    C412   O1194     0.71036      .   S
    C651   O1195     0.71036  1_655   S
    C413   O1195     0.71036      .   S
    C168   O1196     0.54891      .   S
    C400   O1196     0.54891      .   S
    C169   O1197     0.54891      .   S
    C401   O1197     0.54891      .   S
    C170   O1198     0.54891      .   S
    C402   O1198     0.54891      .   S
    C171   O1199     0.54891      .   S
    C403   O1199     0.54891      .   S
    C413   O1200     0.55120      .   S
    C197   O1200     0.55120      .   S
    C413   O1201     0.54897      .   S
    C193   O1201     0.54897      .   S
    C412   O1202     0.55120      .   S
    C196   O1202     0.55120      .   S
    C412   O1203     0.54898      .   S
    C192   O1203     0.54898      .   S
    C415   O1204     0.55121      .   S
    C199   O1204     0.55121      .   S
    C415   O1205     0.54897      .   S
    C195   O1205     0.54897      .   S
    C414   O1206     0.55120      .   S
    C198   O1206     0.55120      .   S
    C414   O1207     0.54897      .   S
    C194   O1207     0.54897      .   S
    C173   O1208     0.55118      .   S
    C401   O1208     0.55118      .   S
    C174   O1209     0.55118      .   S
    C402   O1209     0.55118      .   S
    C175   O1210     0.55118      .   S
    C403   O1210     0.55118      .   S
    C172   O1211     0.55118      .   S
    C400   O1211     0.55118      .   S
    C331   O1212     0.55151      .   S
    C479   O1212     0.55151      .   S
    C329   O1213     0.55132      .   S
    C477   O1213     0.55132      .   S
    C328   O1214     0.55132      .   S
    C476   O1214     0.55132      .   S
    C330   O1215     0.55132      .   S
    C478   O1215     0.55132      .   S
    C598   O1216     0.58615      .   S
    C526   O1216     0.58615      .   S
    C598   O1217     1.20161      .   S
    C22    O1217     1.20161      .   S
    C599   O1218     1.20162      .   S
    C23    O1218     1.20162      .   S
    C599   O1219     0.58615      .   S
    C527   O1219     0.58615      .   S
    C597   O1220     1.20162      .   S
    C21    O1220     1.20162      .   S
    C597   O1221     0.58616      .   S
    C525   O1221     0.58616      .   S
    C596   O1222     1.20162      .   S
    C20    O1222     1.20162      .   S
    C596   O1223     0.58615      .   S
    C524   O1223     0.58615      .   S
    C526   O1224     0.70123      .   S
    C522   O1224     0.70123      .   S
    C20    O1225     1.20300      .   S
    C572   O1225     1.20300      .   S
    C21    O1226     1.20244      .   S
    C573   O1226     1.20244      .   S
    C22    O1227     1.20299      .   S
    C574   O1227     1.20299      .   S
    C23    O1228     1.20300      .   S
    C575   O1228     1.20300      .   S
    C524   O1229     0.70123      .   S
    C520   O1229     0.70123      .   S
    C525   O1230     0.70122      .   S
    C521   O1230     0.70122      .   S
    C527   O1231     0.70121      .   S
    C523   O1231     0.70121      .   S
    C523   O1232     0.70123      .   S
    C399   O1232     0.70123      .   S
    C521   O1233     0.70122      .   S
    C397   O1233     0.70122      .   S
    C520   O1234     0.70122      .   S
    C396   O1234     0.70122      .   S
    C522   O1235     0.70122      .   S
    C398   O1235     0.70122      .   S
    C402   O1236     0.71011      .   S
    C643   O1236     0.71011      .   S
    C402   O1237     0.55071      .   S
    C178   O1237     0.55071      .   S
    C401   O1238     0.71033      .   S
    C640   O1238     0.71033  1_545   S
    C401   O1239     0.55070      .   S
    C177   O1239     0.55070      .   S
    C400   O1240     0.71011      .   S
    C641   O1240     0.71011      .   S
    C400   O1241     0.55071      .   S
    C176   O1241     0.55071      .   S
    C403   O1242     0.71033      .   S
    C642   O1242     0.71033  1_545   S
    C403   O1243     0.55071      .   S
    C179   O1243     0.55071      .   S
    C335   O1244     0.55039      .   S
    C479   O1244     0.55039      .   S
    C332   O1245     0.55038      .   S
    C476   O1245     0.55038      .   S
    C333   O1246     0.55038      .   S
    C477   O1246     0.55038      .   S
    C334   O1247     0.55038      .   S
    C478   O1247     0.55038      .   S
    C640   O1248     0.73854      .   S
    C44    O1248     0.73854      .   S
    C643   O1249     0.73854      .   S
    C47    O1249     0.73854      .   S
    C642   O1250     0.73854      .   S
    C46    O1250     0.73854      .   S
    C641   O1251     0.73854      .   S
    C45    O1251     0.73854      .   S
    C477   O1252     0.54886      .   S
    C325   O1252     0.54886      .   S
    C477   O1253     0.71075      .   S
    C693   O1253     0.71075      .   S
    C478   O1254     0.54887      .   S
    C326   O1254     0.54887      .   S
    C478   O1255     0.71075      .   S
    C694   O1255     0.71075      .   S
    C479   O1256     0.54886      .   S
    C327   O1256     0.54886      .   S
    C479   O1257     0.71075      .   S
    C695   O1257     0.71075      .   S
    C476   O1258     0.54886      .   S
    C324   O1258     0.54886      .   S
    C476   O1259     0.71076      .   S
    C692   O1259     0.71076      .   S
    C396   O1260     0.58619      .   S
    C548   O1260     0.58619      .   S
    C397   O1261     0.58619      .   S
    C549   O1261     0.58619      .   S
    C398   O1262     0.58619      .   S
    C550   O1262     0.58619      .   S
    C399   O1263     0.58619      .   S
    C551   O1263     0.58619      .   S
    C573   O1264     0.58653      .   S
    C469   O1264     0.58653      .   S
    C572   O1265     0.58586      .   S
    C468   O1265     0.58586      .   S
    C574   O1266     0.58586      .   S
    C470   O1266     0.58586      .   S
    C575   O1267     0.58586      .   S
    C471   O1267     0.58586      .   S
    C695   O1268     0.73812      .   S
    C46    O1268     0.73812  1_545   S
    C692   O1269     0.73804      .   S
    C45    O1269     0.73804      .   S
    C693   O1270     0.73812      .   S
    C44    O1270     0.73812  1_545   S
    C694   O1271     0.73804      .   S
    C47    O1271     0.73804      .   S
    C47    O1272     0.73800      .   S
    C647   O1272     0.73800      .   S
    C47    O1273     0.73842      .   S
    C690   O1273     0.73842      .   S
    C46    O1274     0.73800      .   S
    C646   O1274     0.73800      .   S
    C46    O1275     0.73853  1_545   S
    C691   O1275     0.73853      .   S
    C45    O1276     0.73800      .   S
    C645   O1276     0.73800      .   S
    C45    O1277     0.73843      .   S
    C688   O1277     0.73843      .   S
    C44    O1278     0.73800      .   S
    C644   O1278     0.73800      .   S
    C44    O1279     0.73853  1_545   S
    C689   O1279     0.73853      .   S
    C644   O1280     0.71072      .   S
    C404   O1280     0.71072      .   S
    C645   O1281     0.71073      .   S
    C405   O1281     0.71073      .   S
    C646   O1282     0.71073      .   S
    C406   O1282     0.71073      .   S
    C647   O1283     0.71073      .   S
    C407   O1283     0.71073      .   S
    C550   O1284     1.20307      .   S
    C2     O1284     1.20307      .   S
    C549   O1285     1.20307      .   S
    C1     O1285     1.20307      .   S
    C548   O1286     1.20274      .   S
    C0     O1286     1.20274      .   S
    C551   O1287     1.20307      .   S
    C3     O1287     1.20307      .   S
    C181   O1288     0.54890      .   S
    C405   O1288     0.54890      .   S
    C180   O1289     0.54890      .   S
    C404   O1289     0.54890      .   S
    C182   O1290     0.54889      .   S
    C406   O1290     0.54889      .   S
    C183   O1291     0.54890      .   S
    C407   O1291     0.54890      .   S
    C468   O1292     0.70154      .   S
    C482   O1292     0.70154      .   S
    C469   O1293     0.70154      .   S
    C483   O1293     0.70154      .   S
    C470   O1294     0.70162      .   S
    C480   O1294     0.70162  1_455   S
    C471   O1295     0.70162      .   S
    C481   O1295     0.70162  1_455   S
    C322   O1296     0.55138      .   S
    C474   O1296     0.55138      .   S
    C323   O1297     0.55138      .   S
    C475   O1297     0.55138      .   S
    C321   O1298     0.55138      .   S
    C473   O1298     0.55138      .   S
    C320   O1299     0.55139      .   S
    C472   O1299     0.55139      .   S
    C407   O1300     0.55036      .   S
    C191   O1300     0.55036      .   S
    C407   O1301     0.55131      .   S
    C187   O1301     0.55131      .   S
    C404   O1302     0.55036      .   S
    C188   O1302     0.55036      .   S
    C404   O1303     0.55131      .   S
    C184   O1303     0.55131      .   S
    C405   O1304     0.55036      .   S
    C189   O1304     0.55036      .   S
    C405   O1305     0.55131      .   S
    C185   O1305     0.55131      .   S
    C406   O1306     0.55036      .   S
    C190   O1306     0.55036      .   S
    C406   O1307     0.55131      .   S
    C186   O1307     0.55131      .   S
    C691   O1308     0.71001  1_565   S
    C474   O1308     0.71001      .   S
    C690   O1309     0.70996      .   S
    C475   O1309     0.70996      .   S
    C689   O1310     0.71001  1_565   S
    C472   O1310     0.71001      .   S
    C688   O1311     0.70996      .   S
    C473   O1311     0.70996      .   S
    C49    O1312     0.54901      .   S
    C341   O1312     0.54901      .   S
    C50    O1313     0.54901      .   S
    C342   O1313     0.54901      .   S
    C51    O1314     0.54901      .   S
    C343   O1314     0.54901      .   S
    C48    O1315     0.54893      .   S
    C340   O1315     0.54893      .   S
    C472   O1316     0.55124      .   S
    C316   O1316     0.55124      .   S
    C472   O1317     0.54902      .   S
    C312   O1317     0.54902      .   S
    C475   O1318     0.55124      .   S
    C319   O1318     0.55124      .   S
    C475   O1319     0.54903      .   S
    C315   O1319     0.54903      .   S
    C474   O1320     0.55125      .   S
    C318   O1320     0.55125      .   S
    C474   O1321     0.54902      .   S
    C314   O1321     0.54902      .   S
    C473   O1322     0.55126      .   S
    C317   O1322     0.55126      .   S
    C473   O1323     0.54902      .   S
    C313   O1323     0.54902      .   S
    C52    O1324     0.55131      .   S
    C340   O1324     0.55131      .   S
    C55    O1325     0.55128      .   S
    C343   O1325     0.55128      .   S
    C54    O1326     0.55128      .   S
    C342   O1326     0.55128      .   S
    C53    O1327     0.55127      .   S
    C341   O1327     0.55127      .   S
    C232   O1328     0.55133      .   S
    C428   O1328     0.55133      .   S
    C233   O1329     0.55133      .   S
    C429   O1329     0.55133      .   S
    C234   O1330     0.55132      .   S
    C430   O1330     0.55132      .   S
    C235   O1331     0.55132      .   S
    C431   O1331     0.55132      .   S
    C578   O1332     0.58619      .   S
    C486   O1332     0.58619      .   S
    C577   O1333     0.58619      .   S
    C485   O1333     0.58619      .   S
    C576   O1334     0.58619      .   S
    C484   O1334     0.58619      .   S
    C579   O1335     0.58619      .   S
    C487   O1335     0.58619      .   S
    C484   O1336     0.70125      .   S
    C480   O1336     0.70125      .   S
    C485   O1337     0.70126      .   S
    C481   O1337     0.70126      .   S
    C486   O1338     0.70125      .   S
    C482   O1338     0.70125      .   S
    C487   O1339     0.70125      .   S
    C483   O1339     0.70125      .   S
    C481   O1340     0.70142  1_455   S
    C339   O1340     0.70142      .   S
    C483   O1341     0.70129      .   S
    C337   O1341     0.70129      .   S
    C482   O1342     0.70129      .   S
    C336   O1342     0.70129      .   S
    C480   O1343     0.70142  1_455   S
    C338   O1343     0.70142      .   S
    C0     O1344     1.20282      .   S
    C556   O1344     1.20282      .   S
    C3     O1345     1.20249      .   S
    C559   O1345     1.20249      .   S
    C2     O1346     1.20249      .   S
    C558   O1346     1.20249      .   S
    C1     O1347     1.20249      .   S
    C557   O1347     1.20249      .   S
    C340   O1348     0.70996      .   S
    C600   O1348     0.70996      .   S
    C340   O1349     0.55138      .   S
    C56    O1349     0.55138      .   S
    C341   O1350     0.70996      .   S
    C601   O1350     0.70996      .   S
    C341   O1351     0.55065      .   S
    C57    O1351     0.55065      .   S
    C342   O1352     0.70996      .   S
    C602   O1352     0.70996      .   S
    C342   O1353     0.55130      .   S
    C58    O1353     0.55130      .   S
    C343   O1354     0.70996      .   S
    C603   O1354     0.70996      .   S
    C343   O1355     0.55130      .   S
    C59    O1355     0.55130      .   S
    C236   O1356     0.55039      .   S
    C428   O1356     0.55039      .   S
    C237   O1357     0.55041      .   S
    C429   O1357     0.55041      .   S
    C238   O1358     0.55041      .   S
    C430   O1358     0.55041      .   S
    C239   O1359     0.55041      .   S
    C431   O1359     0.55041      .   S
    C431   O1360     0.54885      .   S
    C231   O1360     0.54885      .   S
    C431   O1361     0.71094      .   S
    C663   O1361     0.71094      .   S
    C428   O1362     0.54885      .   S
    C228   O1362     0.54885      .   S
    C428   O1363     0.71102      .   S
    C660   O1363     0.71102      .   S
    C429   O1364     0.54884      .   S
    C229   O1364     0.54884      .   S
    C429   O1365     0.71027      .   S
    C661   O1365     0.71027      .   S
    C430   O1366     0.54883      .   S
    C230   O1366     0.54883      .   S
    C430   O1367     0.71095      .   S
    C662   O1367     0.71095      .   S
    C600   O1368     1.20076      .   S
    C0     O1368     1.20076      .   S
    C601   O1369     1.20065      .   S
    C1     O1369     1.20065      .   S
    C602   O1370     1.20063      .   S
    C2     O1370     1.20063      .   S
    C603   O1371     1.20064      .   S
    C3     O1371     1.20064      .   S
    C604   O1372     1.17514  1_554   S
    C0     O1372     1.17514      .   S
    C605   O1373     1.17480  1_554   S
    C1     O1373     1.17480      .   S
    C606   O1374     1.17480  1_554   S
    C2     O1374     1.17480      .   S
    C607   O1375     1.17481  1_554   S
    C3     O1375     1.17481      .   S
    C608   O1376     1.20027      .   S
    C4     O1376     1.20027      .   S
    C609   O1377     1.20023      .   S
    C5     O1377     1.20023      .   S
    C610   O1378     1.20028      .   S
    C6     O1378     1.20028      .   S
    C611   O1379     1.20024      .   S
    C7     O1379     1.20024      .   S
    C612   O1380     1.18563      .   S
    C4     O1380     1.18563      .   S
    C613   O1381     1.18554      .   S
    C5     O1381     1.18554      .   S
    C614   O1382     1.18563      .   S
    C6     O1382     1.18563      .   S
    C615   O1383     1.18554      .   S
    C7     O1383     1.18554      .   S
    C616   O1384     1.19965      .   S
    C8     O1384     1.19965      .   S
    C617   O1385     1.19965      .   S
    C9     O1385     1.19965      .   S
    C618   O1386     1.19965      .   S
    C10    O1386     1.19965      .   S
    C619   O1387     1.19964      .   S
    C11    O1387     1.19964      .   S
    C620   O1388     1.18675      .   S
    C8     O1388     1.18675      .   S
    C621   O1389     1.18675      .   S
    C9     O1389     1.18675      .   S
    C622   O1390     1.18675      .   S
    C10    O1390     1.18675      .   S
    C623   O1391     1.18675      .   S
    C11    O1391     1.18675      .   S
    C624   O1392     1.20121      .   S
    C12    O1392     1.20121      .   S
    C625   O1393     1.20119      .   S
    C13    O1393     1.20119      .   S
    C626   O1394     1.20122      .   S
    C14    O1394     1.20122      .   S
    C627   O1395     1.20119      .   S
    C15    O1395     1.20119      .   S
    C628   O1396     1.18582      .   S
    C12    O1396     1.18582      .   S
    C629   O1397     1.18580      .   S
    C13    O1397     1.18580      .   S
    C630   O1398     1.18575      .   S
    C14    O1398     1.18575      .   S
    C631   O1399     1.18587      .   S
    C15    O1399     1.18587      .   S
    C632   O1400     1.20058      .   S
    C16    O1400     1.20058      .   S
    C633   O1401     1.20059      .   S
    C17    O1401     1.20059      .   S
    C634   O1402     1.20058      .   S
    C18    O1402     1.20058      .   S
    C635   O1403     1.20059      .   S
    C19    O1403     1.20059      .   S
    C636   O1404     1.18154      .   S
    C16    O1404     1.18154      .   S
    C637   O1405     1.18155      .   S
    C17    O1405     1.18155      .   S
    C638   O1406     1.18154      .   S
    C18    O1406     1.18154      .   S
    C639   O1407     1.18155      .   S
    C19    O1407     1.18155      .   S
    C640   O1408     1.19905      .   S
    C20    O1408     1.19905      .   S
    C641   O1409     1.19906      .   S
    C21    O1409     1.19906      .   S
    C642   O1410     1.19905      .   S
    C22    O1410     1.19905      .   S
    C643   O1411     1.19905      .   S
    C23    O1411     1.19905      .   S
    C644   O1412     1.18678      .   S
    C20    O1412     1.18678      .   S
    C645   O1413     1.18678      .   S
    C21    O1413     1.18678      .   S
    C646   O1414     1.18678      .   S
    C22    O1414     1.18678      .   S
    C647   O1415     1.18678      .   S
    C23    O1415     1.18678      .   S
    C648   O1416     1.19968      .   S
    C20    O1416     1.19968      .   S
    C649   O1417     1.19968      .   S
    C21    O1417     1.19968      .   S
    C650   O1418     1.19969      .   S
    C22    O1418     1.19969      .   S
    C651   O1419     1.19969      .   S
    C23    O1419     1.19969      .   S
    C652   O1420     1.18629      .   S
    C20    O1420     1.18629      .   S
    C653   O1421     1.18629      .   S
    C21    O1421     1.18629      .   S
    C654   O1422     1.18629      .   S
    C22    O1422     1.18629      .   S
    C655   O1423     1.18629      .   S
    C23    O1423     1.18629      .   S
    C656   O1424     1.20110      .   S
    C16    O1424     1.20110      .   S
    C657   O1425     1.20108      .   S
    C17    O1425     1.20108      .   S
    C658   O1426     1.20108      .   S
    C18    O1426     1.20108      .   S
    C659   O1427     1.20108      .   S
    C19    O1427     1.20108      .   S
    C660   O1428     1.18452  1_556   S
    C16    O1428     1.18452      .   S
    C661   O1429     1.18532  1_556   S
    C17    O1429     1.18532      .   S
    C662   O1430     1.18459  1_556   S
    C18    O1430     1.18459      .   S
    C663   O1431     1.18457  1_556   S
    C19    O1431     1.18457      .   S
    C664   O1432     1.20113      .   S
    C12    O1432     1.20113      .   S
    C665   O1433     1.20113      .   S
    C13    O1433     1.20113      .   S
    C666   O1434     1.20113      .   S
    C14    O1434     1.20113      .   S
    C667   O1435     1.20112      .   S
    C15    O1435     1.20112      .   S
    C668   O1436     1.18567      .   S
    C12    O1436     1.18567      .   S
    C669   O1437     1.18567      .   S
    C13    O1437     1.18567      .   S
    C670   O1438     1.18567      .   S
    C14    O1438     1.18567      .   S
    C671   O1439     1.18566      .   S
    C15    O1439     1.18566      .   S
    C672   O1440     1.19927      .   S
    C8     O1440     1.19927      .   S
    C673   O1441     1.19927      .   S
    C9     O1441     1.19927      .   S
    C674   O1442     1.19926      .   S
    C10    O1442     1.19926      .   S
    C675   O1443     1.19927      .   S
    C11    O1443     1.19927      .   S
    C676   O1444     1.18714      .   S
    C8     O1444     1.18714      .   S
    C677   O1445     1.18714      .   S
    C9     O1445     1.18714      .   S
    C678   O1446     1.18714      .   S
    C10    O1446     1.18714      .   S
    C679   O1447     1.18714      .   S
    C11    O1447     1.18714      .   S
    C680   O1448     1.20139      .   S
    C4     O1448     1.20139      .   S
    C681   O1449     1.20118      .   S
    C5     O1449     1.20118      .   S
    C682   O1450     1.20138      .   S
    C6     O1450     1.20138      .   S
    C683   O1451     1.20120      .   S
    C7     O1451     1.20120      .   S
    C684   O1452     1.18523      .   S
    C4     O1452     1.18523      .   S
    C685   O1453     1.18525      .   S
    C5     O1453     1.18525      .   S
    C686   O1454     1.18521      .   S
    C6     O1454     1.18521      .   S
    C687   O1455     1.18527      .   S
    C7     O1455     1.18527      .   S
    C688   O1456     1.20081      .   S
    C0     O1456     1.20081      .   S
    C689   O1457     1.20093      .   S
    C1     O1457     1.20093      .   S
    C690   O1458     1.20093      .   S
    C2     O1458     1.20093      .   S
    C691   O1459     1.20093      .   S
    C3     O1459     1.20093      .   S
    C692   O1460     1.18473      .   S
    C0     O1460     1.18473      .   S
    C693   O1461     1.18510      .   S
    C1     O1461     1.18510      .   S
    C694   O1462     1.18510      .   S
    C2     O1462     1.18510      .   S
    C695   O1463     1.18510      .   S
    C3     O1463     1.18510      .   S
