# CIF file generated by openbabel 2.4.90, see http://openbabel.sf.net
data_I
_chemical_name_common ''
_cell_length_a 12.465
_cell_length_b 15.968
_cell_length_c 15.972
_cell_angle_alpha 90.002
_cell_angle_beta 89.977
_cell_angle_gamma 90.007
_space_group_name_H-M_alt 'P 1'
_space_group_name_Hall 'P 1'
loop_
    _symmetry_equiv_pos_as_xyz
    x,y,z
loop_
    _atom_site_label
    _atom_site_type_symbol
    _atom_site_fract_x
    _atom_site_fract_y
    _atom_site_fract_z
    _atom_site_occupancy
    Cu0     Cu   0.12443   0.47840   0.99748   1.000
    Cu1     Cu   0.87448   0.49748   0.02164   1.000
    Cu2     Cu   0.37440   0.50248   0.97836   1.000
    Cu3     Cu   0.62560   0.97841   0.50248   1.000
    Cu4     Cu   0.12557   0.02166   0.49740   1.000
    Cu5     Cu   0.37562   0.00246   0.52164   1.000
    Cu6     Cu   0.87559   0.99751   0.47830   1.000
    Cu7     Cu   0.62444   0.52168   0.00248   1.000
    Cl8     Cl   0.74937   0.44199   0.92371   1.000
    Cl9     Cl   0.24929   0.55805   0.07632   1.000
    Cl10    Cl   0.99939   0.57636   0.94190   1.000
    Cl11    Cl   0.49929   0.42371   0.05798   1.000
    Cl12    Cl   0.50074   0.05804   0.42368   1.000
    Cl13    Cl   0.00064   0.94201   0.57628   1.000
    Cl14    Cl   0.25070   0.92371   0.44201   1.000
    Cl15    Cl   0.75070   0.07635   0.55802   1.000
loop_
    _geom_bond_atom_site_label_1
    _geom_bond_atom_site_label_2
    _geom_bond_distance
    _geom_bond_site_symmetry_2
    _ccdc_geom_bond_type
    Cu7    Cl8       2.37194  1_554   S
    Cu1    Cl10      2.37289  1_554   S
    Cl11   Cu2       2.37173  1_554   S
    Cl9    Cu0       2.37206  1_554   S
    Cl12   Cu3       2.37180  1_545   S
    Cl14   Cu5       2.37159  1_565   S
    Cu6    Cl15      2.37236  1_565   S
    Cu4    Cl13      2.37237  1_545   S
