# CIF file generated by openbabel 2.4.90, see http://openbabel.sf.net
data_I
_chemical_name_common ''
_cell_length_a 12.465
_cell_length_b 15.968
_cell_length_c 15.972
_cell_angle_alpha 90.002
_cell_angle_beta 89.977
_cell_angle_gamma 90.007
_space_group_name_H-M_alt 'P 1'
_space_group_name_Hall 'P 1'
loop_
    _symmetry_equiv_pos_as_xyz
    x,y,z
loop_
    _atom_site_label
    _atom_site_type_symbol
    _atom_site_fract_x
    _atom_site_fract_y
    _atom_site_fract_z
    _atom_site_occupancy
    Zr0     Zr   0.62444   0.52168   0.00248   1.000
    Zr1     Zr   0.12443   0.47840   0.99748   1.000
    Zr2     Zr   0.87448   0.49748   0.02164   1.000
    Zr3     Zr   0.37440   0.50248   0.97836   1.000
    Zr4     Zr   0.62560   0.97841   0.50248   1.000
    Zr5     Zr   0.12557   0.02166   0.49740   1.000
    Zr6     Zr   0.37562   0.00246   0.52164   1.000
    Zr7     Zr   0.87559   0.99751   0.47830   1.000
    Zr8     Zr   0.74937   0.44199   0.92371   1.000
    Zr9     Zr   0.24929   0.55805   0.07632   1.000
    Zr10    Zr   0.99939   0.57636   0.94190   1.000
    Zr11    Zr   0.49929   0.42371   0.05798   1.000
    Zr12    Zr   0.50074   0.05804   0.42368   1.000
    Zr13    Zr   0.00064   0.94201   0.57628   1.000
    Zr14    Zr   0.25070   0.92371   0.44201   1.000
    Zr15    Zr   0.75070   0.07635   0.55802   1.000
    O16     O    0.68690   0.48184   0.96309   1.000
    O17     O    0.93694   0.53692   0.98177   1.000
    O18     O    0.43684   0.46309   0.01817   1.000
    O19     O    0.18686   0.51822   0.03690   1.000
    O20     O    0.56317   0.01822   0.46308   1.000
    O21     O    0.31316   0.96308   0.48182   1.000
    O22     O    0.81314   0.03693   0.51816   1.000
    O23     O    0.06311   0.98184   0.53684   1.000
    N24     N    0.00002   0.23085   0.23083   1.000
    O25     O    0.04488   0.33460   0.13414   1.000
    O26     O    0.95451   0.34014   0.14110   1.000
    O27     O    0.95516   0.13416   0.33455   1.000
    O28     O    0.04554   0.14113   0.34012   1.000
    N29     N    0.75001   0.73087   0.26913   1.000
    O30     O    0.79488   0.63416   0.16541   1.000
    O31     O    0.70448   0.64114   0.15982   1.000
    O32     O    0.70516   0.83460   0.36583   1.000
    O33     O    0.79554   0.84018   0.35885   1.000
    N34     N    0.25002   0.26915   0.73083   1.000
    O35     O    0.29485   0.36585   0.83455   1.000
    O36     O    0.20447   0.35889   0.84014   1.000
    O37     O    0.20516   0.16543   0.63412   1.000
    O38     O    0.29556   0.15984   0.64110   1.000
    N39     N    0.50002   0.76917   0.76911   1.000
    O40     O    0.54486   0.66546   0.86582   1.000
    O41     O    0.45446   0.65984   0.85886   1.000
    O42     O    0.45518   0.86584   0.66540   1.000
    O43     O    0.54557   0.85892   0.65968   1.000
loop_
    _geom_bond_atom_site_label_1
    _geom_bond_atom_site_label_2
    _geom_bond_distance
    _geom_bond_site_symmetry_2
    _ccdc_geom_bond_type
    Zr0    O16       1.18597  1_554   S
    Zr8    O16       1.18597      .   S
    Zr2    O17       1.18645  1_554   S
    Zr10   O17       1.18645      .   S
    Zr11   O18       1.18587      .   S
    Zr3    O18       1.18587  1_556   S
    Zr9    O19       1.18603      .   S
    Zr1    O19       1.18603  1_556   S
    Zr12   O20       1.18590      .   S
    Zr4    O20       1.18590  1_565   S
    Zr14   O21       1.18579      .   S
    Zr6    O21       1.18579  1_545   S
    Zr7    O22       1.18618  1_565   S
    Zr15   O22       1.18618      .   S
    Zr5    O23       1.18619  1_545   S
    Zr13   O23       1.18619      .   S
    N24    O25       2.33253      .   S
    Zr1    O25       3.31943  1_556   S
    N24    O26       2.32859  1_455   S
    Zr2    O26       3.30909      .   S
    N24    O27       2.33244  1_455   S
    Zr7    O27       3.31878  1_565   S
    N24    O28       2.32864      .   S
    Zr5    O28       3.30880      .   S
    N29    O30       2.33263      .   S
    Zr2    O30       3.31949      .   S
    N29    O31       2.32874      .   S
    Zr0    O31       3.30928      .   S
    N29    O32       2.33257      .   S
    Zr4    O32       3.31945      .   S
    N29    O33       2.32859      .   S
    Zr7    O33       3.30880      .   S
    N34    O35       2.33262      .   S
    Zr3    O35       3.31956      .   S
    N34    O36       2.32869      .   S
    Zr1    O36       3.30915      .   S
    N34    O37       2.33286      .   S
    Zr5    O37       3.32018      .   S
    N34    O38       2.32868      .   S
    Zr6    O38       3.30915      .   S
    N39    O40       2.33279      .   S
    Zr0    O40       3.31984  1_554   S
    N39    O41       2.32885      .   S
    Zr3    O41       3.30935      .   S
    N39    O42       2.33248      .   S
    Zr6    O42       3.31931  1_545   S
    N39    O43       2.33037      .   S
    Zr4    O43       3.30721      .   S
