# CIF file generated by openbabel 2.4.90, see http://openbabel.sf.net
data_I
_chemical_name_common ''
_cell_length_a 12.465
_cell_length_b 15.968
_cell_length_c 15.972
_cell_angle_alpha 90.002
_cell_angle_beta 89.977
_cell_angle_gamma 90.007
_space_group_name_H-M_alt 'P 1'
_space_group_name_Hall 'P 1'
loop_
    _symmetry_equiv_pos_as_xyz
    x,y,z
loop_
    _atom_site_label
    _atom_site_type_symbol
    _atom_site_fract_x
    _atom_site_fract_y
    _atom_site_fract_z
    _atom_site_occupancy
    N0      N    0.00002   0.23085   0.23083   1.000
    N1      N    0.75001   0.73087   0.26913   1.000
    N2      N    0.25002   0.26915   0.73083   1.000
    N3      N    0.50002   0.76917   0.76911   1.000
    Zr4     Zr   0.18686   0.51822   0.03690   1.000
    O5      O    0.11587   0.42641   0.08552   1.000
    O6      O    0.19566   0.43856   0.93852   1.000
    Zr7     Zr   0.93694   0.53692   0.98177   1.000
    O8      O    0.94572   0.43853   0.06144   1.000
    O9      O    0.86591   0.58554   0.07359   1.000
    Zr10    Zr   0.43684   0.46309   0.01817   1.000
    O11     O    0.36585   0.41447   0.92636   1.000
    O12     O    0.44565   0.56147   0.93851   1.000
    Zr13    Zr   0.56317   0.01822   0.46308   1.000
    O14     O    0.55437   0.93857   0.56138   1.000
    O15     O    0.63417   0.92641   0.41445   1.000
    Zr16    Zr   0.06311   0.98184   0.53684   1.000
    O17     O    0.13413   0.07363   0.58548   1.000
    O18     O    0.05432   0.06149   0.43848   1.000
    Zr19    Zr   0.31316   0.96308   0.48182   1.000
    O20     O    0.38417   0.91446   0.57361   1.000
    O21     O    0.30436   0.06146   0.56146   1.000
    Zr22    Zr   0.81314   0.03693   0.51816   1.000
    O23     O    0.88415   0.08554   0.42635   1.000
    O24     O    0.80434   0.93856   0.43850   1.000
    Zr25    Zr   0.68690   0.48184   0.96310   1.000
    O26     O    0.69569   0.56149   0.06146   1.000
    O27     O    0.61588   0.57365   0.91446   1.000
loop_
    _geom_bond_atom_site_label_1
    _geom_bond_atom_site_label_2
    _geom_bond_distance
    _geom_bond_site_symmetry_2
    _ccdc_geom_bond_type
    Zr4    O5        1.88009      .   S
    N0     O5        4.14957      .   S
    Zr4    O6        2.02463  1_554   S
    N2     O6        4.33335      .   S
    Zr7    O8        2.02474  1_556   S
    N0     O8        4.33336  1_455   S
    Zr7    O9        1.88051  1_556   S
    N1     O9        4.15006      .   S
    Zr10   O11       1.88068  1_554   S
    N2     O11       4.15022      .   S
    Zr10   O12       2.02444  1_554   S
    N3     O12       4.33332      .   S
    Zr13   O14       2.02354  1_545   S
    N3     O14       4.33397      .   S
    Zr13   O15       1.88023  1_545   S
    N1     O15       4.14972      .   S
    Zr16   O17       1.88044  1_565   S
    N2     O17       4.15026      .   S
    Zr16   O18       2.02433  1_565   S
    N0     O18       4.33301      .   S
    Zr19   O20       1.88064      .   S
    N3     O20       4.15010      .   S
    Zr19   O21       2.02422  1_565   S
    N2     O21       4.33291      .   S
    Zr22   O23       1.88017      .   S
    N0     O23       4.14953  1_455   S
    Zr22   O24       2.02443  1_545   S
    N1     O24       4.33306      .   S
    Zr25   O26       2.02435  1_556   S
    N1     O26       4.33312      .   S
    Zr25   O27       1.88078      .   S
    N3     O27       4.15049      .   S
