# CIF file generated by openbabel 2.4.90, see http://openbabel.sf.net
data_I
_chemical_name_common ''
_cell_length_a 13.926
_cell_length_b 15.054
_cell_length_c 15.041
_cell_angle_alpha 117.175
_cell_angle_beta 96.398
_cell_angle_gamma 96.64
_space_group_name_H-M_alt 'P 1'
_space_group_name_Hall 'P 1'
loop_
    _symmetry_equiv_pos_as_xyz
    x,y,z
loop_
    _atom_site_label
    _atom_site_type_symbol
    _atom_site_fract_x
    _atom_site_fract_y
    _atom_site_fract_z
    _atom_site_occupancy
    H0      H    0.37810   0.64132   0.05753   1.000
    H1      H    0.00000   0.59915   0.45810   1.000
    H2      H    0.97887   0.65657   0.21313   1.000
    H3      H    0.83081   0.61071   0.47479   1.000
    H4      H    0.40610   0.66337   0.88516   1.000
    H5      H    0.03449   0.60599   0.80491   1.000
    H6      H    0.80205   0.67060   0.21871   1.000
    H7      H    0.39893   0.68573   0.70850   1.000
    H8      H    0.12179   0.94151   0.35752   1.000
    H9      H    0.49323   0.54196   0.40023   1.000
    H10     H    0.52235   0.78717   0.34335   1.000
    H11     H    0.66813   0.52489   0.38864   1.000
    H12     H    0.09379   0.11403   0.33631   1.000
    H13     H    0.46545   0.19584   0.39389   1.000
    H14     H    0.69917   0.78127   0.32938   1.000
    H15     H    0.10097   0.29109   0.31491   1.000
    H16     H    0.62192   0.35870   0.94246   1.000
    H17     H    0.99422   0.40087   0.54189   1.000
    H18     H    0.02116   0.34345   0.78680   1.000
    H19     H    0.16922   0.38931   0.52520   1.000
    H20     H    0.59392   0.33665   0.11483   1.000
    H21     H    0.96553   0.39403   0.19508   1.000
    H22     H    0.19797   0.32942   0.78120   1.000
    H23     H    0.60109   0.31430   0.29149   1.000
    H24     H    0.87823   0.05851   0.64247   1.000
    H25     H    0.50680   0.45806   0.59976   1.000
    H26     H    0.47767   0.21284   0.65664   1.000
    H27     H    0.33189   0.47513   0.61135   1.000
    H28     H    0.90623   0.88599   0.66369   1.000
    H29     H    0.53457   0.80418   0.60610   1.000
    H30     H    0.30085   0.21875   0.67061   1.000
    H31     H    0.89905   0.70893   0.68509   1.000
    C32     C    0.22542   0.60859   0.06534   1.000
    C33     C    0.30152   0.62798   0.02251   1.000
    C34     C    0.95755   0.61475   0.40696   1.000
    C35     C    0.80185   0.64315   0.34863   1.000
    C36     C    0.94276   0.64821   0.27026   1.000
    C37     C    0.26936   0.63182   0.93080   1.000
    C38     C    0.17274   0.63953   0.76230   1.000
    C39     C    0.25117   0.67085   0.63507   1.000
    C40     C    0.16371   0.61510   0.90671   1.000
    C41     C    0.86020   0.62108   0.41536   1.000
    C42     C    0.32599   0.65109   0.86796   1.000
    C43     C    0.32038   0.67281   0.70852   1.000
    C44     C    0.11456   0.61886   0.82270   1.000
    C45     C    0.84492   0.65646   0.27449   1.000
    C46     C    0.27843   0.65522   0.78320   1.000
    C47     C    0.27448   0.93421   0.39009   1.000
    C48     C    0.19837   0.97683   0.37093   1.000
    C49     C    0.54196   0.59307   0.38476   1.000
    C50     C    0.69824   0.65119   0.35654   1.000
    C51     C    0.55797   0.72991   0.35161   1.000
    C52     C    0.23053   0.06881   0.36754   1.000
    C53     C    0.32719   0.23804   0.36066   1.000
    C54     C    0.24876   0.36529   0.33012   1.000
    C55     C    0.33620   0.09335   0.38433   1.000
    C56     C    0.63925   0.58446   0.37841   1.000
    C57     C    0.17392   0.13157   0.34863   1.000
    C58     C    0.17954   0.29139   0.32778   1.000
    C59     C    0.38537   0.17766   0.38098   1.000
    C60     C    0.65581   0.72551   0.34340   1.000
    C61     C    0.22149   0.21669   0.34491   1.000
    C62     C    0.77461   0.39143   0.93465   1.000
    C63     C    0.69850   0.37204   0.97748   1.000
    C64     C    0.04247   0.38527   0.59303   1.000
    C65     C    0.19818   0.35687   0.65130   1.000
    C66     C    0.05727   0.35181   0.72973   1.000
    C67     C    0.73066   0.36821   0.06919   1.000
    C68     C    0.82728   0.36050   0.23770   1.000
    C69     C    0.74885   0.32918   0.36493   1.000
    C70     C    0.83631   0.38493   0.09328   1.000
    C71     C    0.13982   0.37894   0.58464   1.000
    C72     C    0.67404   0.34894   0.13204   1.000
    C73     C    0.67964   0.32722   0.29147   1.000
    C74     C    0.88546   0.38116   0.17723   1.000
    C75     C    0.15510   0.34356   0.72551   1.000
    C76     C    0.72159   0.34481   0.21679   1.000
    C77     C    0.72555   0.06581   0.60990   1.000
    C78     C    0.80165   0.02319   0.62906   1.000
    C79     C    0.45807   0.40695   0.61523   1.000
    C80     C    0.30178   0.34883   0.64345   1.000
    C81     C    0.44206   0.27011   0.64838   1.000
    C82     C    0.76949   0.93121   0.63240   1.000
    C83     C    0.67284   0.76198   0.63934   1.000
    C84     C    0.75127   0.63473   0.66988   1.000
    C85     C    0.66382   0.90667   0.61566   1.000
    C86     C    0.36078   0.41556   0.62158   1.000
    C87     C    0.82611   0.86845   0.65137   1.000
    C88     C    0.82049   0.70863   0.67222   1.000
    C89     C    0.61465   0.82236   0.61900   1.000
    C90     C    0.34422   0.27451   0.65659   1.000
    C91     C    0.77854   0.78333   0.65509   1.000
    S92     S    0.13053   0.64828   0.65372   1.000
    S93     S    0.10956   0.59228   0.99504   1.000
    S94     S    0.36941   0.34702   0.35246   1.000
    S95     S    0.39033   0.00505   0.40669   1.000
    S96     S    0.86949   0.35175   0.34628   1.000
    S97     S    0.89046   0.40774   0.00496   1.000
    S98     S    0.63062   0.65299   0.64753   1.000
    S99     S    0.60969   0.99496   0.59330   1.000
    N100    N    0.99849   0.62819   0.33581   1.000
    N101    N    0.50162   0.66436   0.37144   1.000
    N102    N    0.00154   0.37183   0.66418   1.000
    N103    N    0.49841   0.33565   0.62855   1.000
loop_
    _geom_bond_atom_site_label_1
    _geom_bond_atom_site_label_2
    _geom_bond_distance
    _geom_bond_site_symmetry_2
    _ccdc_geom_bond_type
    S97    C70       1.74106      .   S
    S97    C62       1.75287  1_554   S
    C33    H0        1.08799      .   S
    C33    C32       1.36962      .   S
    C33    C37       1.43097  1_554   S
    C32    S93       1.75282  1_554   S
    C67    C70       1.43932      .   S
    C67    C72       1.40117      .   S
    C67    C63       1.43095  1_554   S
    C70    C74       1.39564      .   S
    H20    C72       1.09098      .   S
    C72    C76       1.40042      .   S
    C74    H21       1.09033      .   S
    C74    C68       1.39463      .   S
    H2     C36       1.08977      .   S
    C76    C68       1.43861      .   S
    C76    C73       1.43359      .   S
    H6     C45       1.08929      .   S
    C68    S96       1.74087      .   S
    C36    C45       1.38814      .   S
    C36    N100      1.34908      .   S
    C45    C35       1.40312      .   S
    C73    H23       1.08876      .   S
    C73    C69       1.37004      .   S
    H15    C58       1.08876      .   S
    C58    C54       1.36994      .   S
    C58    C61       1.43363      .   S
    H14    C60       1.08933      .   S
    C54    S94       1.75415      .   S
    N100   C34       1.34842      .   S
    H12    C57       1.09095      .   S
    H10    C51       1.08975      .   S
    C60    C51       1.38816      .   S
    C60    C50       1.40316      .   S
    C61    C57       1.40053      .   S
    C61    C53       1.43859      .   S
    S96    C69       1.75403      .   S
    C57    C52       1.40109      .   S
    C35    C50       1.47513      .   S
    C35    C41       1.40126      .   S
    C51    N101      1.34917      .   S
    S94    C53       1.74086      .   S
    C50    C56       1.40118      .   S
    H8     C48       1.08798      .   S
    C53    C59       1.39462      .   S
    C52    C48       1.43058  1_545   S
    C52    C55       1.43936      .   S
    C48    C47       1.36965      .   S
    N101   C49       1.34844      .   S
    C56    C49       1.38562      .   S
    C56    H11       1.08871      .   S
    C59    C55       1.39554      .   S
    C59    H13       1.09038      .   S
    C55    S95       1.74118      .   S
    C49    H9        1.08834      .   S
    C47    S95       1.75264  1_565   S
    C34    C41       1.38565      .   S
    C34    H1        1.04494  1_655   S
    C41    H3        1.08861      .   S
    H19    C71       1.08876      .   S
    H17    C64       1.08839  1_655   S
    C71    C64       1.38561      .   S
    C71    C65       1.40048      .   S
    C64    N102      1.34842      .   S
    S99    C77       1.75263  1_565   S
    S99    C85       1.74116      .   S
    H25    C79       1.08836      .   S
    H29    C89       1.09039      .   S
    C77    C78       1.36964      .   S
    H27    C86       1.08870      .   S
    C79    C86       1.38561      .   S
    C79    N103      1.34845      .   S
    C85    C89       1.39549      .   S
    C85    C82       1.43940      .   S
    C89    C83       1.39474      .   S
    C86    C80       1.40119      .   S
    N103   C81       1.34918      .   S
    C78    C82       1.43019  1_545   S
    C78    H24       1.08798      .   S
    C82    C87       1.40147      .   S
    C39    S92       1.75405      .   S
    C39    C43       1.36993      .   S
    C83    S98       1.74079      .   S
    C83    C91       1.43859      .   S
    C80    C65       1.47500      .   S
    C80    C90       1.40316      .   S
    S98    C84       1.75417      .   S
    C81    C90       1.38816      .   S
    C81    H26       1.08976      .   S
    C65    C75       1.40408      .   S
    C87    C91       1.40054      .   S
    C87    H28       1.09096      .   S
    S92    C38       1.74088      .   S
    C91    C88       1.43360      .   S
    C90    H30       1.08935      .   S
    N102   C66       1.34909      .   S
    C84    C88       1.36994      .   S
    C88    H31       1.08876      .   S
    H7     C43       1.08876      .   S
    C43    C46       1.43361      .   S
    C75    C66       1.38811      .   S
    C75    H22       1.08822      .   S
    C66    H18       1.08897      .   S
    C38    C46       1.43860      .   S
    C38    C44       1.39378      .   S
    C46    C42       1.40055      .   S
    H5     C44       1.09028      .   S
    C44    C40       1.39643      .   S
    C42    H4        1.09096      .   S
    C42    C37       1.40107      .   S
    C40    C37       1.43933      .   S
    C40    S93       1.74121      .   S
    C62    C63       1.36961      .   S
    H16    C63       1.08799      .   S
