# CIF file generated by openbabel 2.4.90, see http://openbabel.sf.net
data_I
_chemical_name_common ''
_cell_length_a 13.926
_cell_length_b 15.054
_cell_length_c 15.041
_cell_angle_alpha 117.175
_cell_angle_beta 96.398
_cell_angle_gamma 96.64
_space_group_name_H-M_alt 'P 1'
_space_group_name_Hall 'P 1'
loop_
    _symmetry_equiv_pos_as_xyz
    x,y,z
loop_
    _atom_site_label
    _atom_site_type_symbol
    _atom_site_fract_x
    _atom_site_fract_y
    _atom_site_fract_z
    _atom_site_occupancy
    Zn0     Zn   0.35465   0.66500   0.37232   1.000
    Zn1     Zn   0.85463   0.37262   0.66460   1.000
    Zn2     Zn   0.64538   0.33502   0.62767   1.000
    Zn3     Zn   0.14540   0.62739   0.33536   1.000
    C4      C    0.23210   0.60876   0.16440   1.000
    C5      C    0.26390   0.67858   0.54224   1.000
    C6      C    0.26784   0.83508   0.38960   1.000
    C7      C    0.23607   0.45824   0.32285   1.000
    C8      C    0.76793   0.39125   0.83559   1.000
    C9      C    0.73613   0.32144   0.45775   1.000
    C10     C    0.73219   0.16493   0.61036   1.000
    C11     C    0.76395   0.54178   0.67715   1.000
    O12     O    0.34963   0.68692   0.52202   1.000
    O13     O    0.15029   0.58586   0.18758   1.000
    O14     O    0.18364   0.67301   0.48779   1.000
    O15     O    0.31692   0.63402   0.21899   1.000
    O16     O    0.15037   0.47832   0.31485   1.000
    O17     O    0.34968   0.81225   0.41239   1.000
    O18     O    0.31637   0.51294   0.32845   1.000
    O19     O    0.18307   0.78014   0.36430   1.000
    O20     O    0.65040   0.31310   0.47797   1.000
    O21     O    0.84974   0.41414   0.81241   1.000
    O22     O    0.81639   0.32703   0.51221   1.000
    O23     O    0.68310   0.36600   0.78100   1.000
    O24     O    0.84966   0.52171   0.68516   1.000
    O25     O    0.65034   0.18777   0.58760   1.000
    O26     O    0.68365   0.48708   0.67154   1.000
    O27     O    0.81696   0.21987   0.63569   1.000
loop_
    _geom_bond_atom_site_label_1
    _geom_bond_atom_site_label_2
    _geom_bond_distance
    _geom_bond_site_symmetry_2
    _ccdc_geom_bond_type
    C4     O13       1.28288      .   S
    C4     O15       1.26842      .   S
    O13    Zn3       2.02741      .   S
    O15    Zn0       2.12203      .   S
    O16    C7        1.27074      .   S
    O16    Zn3       2.13180      .   S
    C7     O18       1.27995      .   S
    O18    Zn0       2.05414      .   S
    Zn3    O19       2.12328      .   S
    Zn3    O14       2.05348      .   S
    O19    C6        1.26843      .   S
    Zn0    O17       2.02632      .   S
    Zn0    O12       2.13197      .   S
    C6     O17       1.28299      .   S
    C9     O20       1.27073      .   S
    C9     O22       1.28015      .   S
    O20    Zn2       2.13199      .   S
    O14    C5        1.28010      .   S
    O22    Zn1       2.05298      .   S
    O12    C5        1.27071      .   S
    O25    C10       1.28286      .   S
    O25    Zn2       2.02632      .   S
    C10    O27       1.26838      .   S
    Zn2    O26       2.05417      .   S
    Zn2    O23       2.12203      .   S
    O27    Zn1       2.12349      .   S
    Zn1    O24       2.13169      .   S
    Zn1    O21       2.02788      .   S
    O26    C11       1.27994      .   S
    C11    O24       1.27075      .   S
    O23    C8        1.26840      .   S
    O21    C8        1.28289      .   S
    Zn3    Zn0       2.84437      .   S
    Zn1    Zn2       2.84439      .   S
