# CIF file generated by openbabel 2.4.90, see http://openbabel.sf.net
data_I
_chemical_name_common ''
_cell_length_a 13.926
_cell_length_b 15.054
_cell_length_c 15.041
_cell_angle_alpha 117.175
_cell_angle_beta 96.398
_cell_angle_gamma 96.64
_space_group_name_H-M_alt 'P 1'
_space_group_name_Hall 'P 1'
loop_
    _symmetry_equiv_pos_as_xyz
    x,y,z
loop_
    _atom_site_label
    _atom_site_type_symbol
    _atom_site_fract_x
    _atom_site_fract_y
    _atom_site_fract_z
    _atom_site_occupancy
    C0      C    0.23210   0.60876   0.16440   1.000
    C1      C    0.26390   0.67858   0.54224   1.000
    C2      C    0.26784   0.83508   0.38960   1.000
    C3      C    0.23607   0.45824   0.32285   1.000
    C4      C    0.76793   0.39125   0.83559   1.000
    C5      C    0.73613   0.32144   0.45775   1.000
    C6      C    0.73219   0.16493   0.61036   1.000
    C7      C    0.76395   0.54178   0.67715   1.000
