# CIF file generated by openbabel 2.4.90, see http://openbabel.sf.net
data_I
_chemical_name_common ''
_cell_length_a 13.926
_cell_length_b 15.054
_cell_length_c 15.041
_cell_angle_alpha 117.175
_cell_angle_beta 96.398
_cell_angle_gamma 96.64
_space_group_name_H-M_alt 'P 1'
_space_group_name_Hall 'P 1'
loop_
    _symmetry_equiv_pos_as_xyz
    x,y,z
loop_
    _atom_site_label
    _atom_site_type_symbol
    _atom_site_fract_x
    _atom_site_fract_y
    _atom_site_fract_z
    _atom_site_occupancy
    N0      N    0.75746   0.36072   0.14937   1.000
    N1      N    0.74976   0.64663   0.35320   1.000
    N2      N    0.25735   0.14927   0.36048   1.000
    N3      N    0.74267   0.85074   0.63951   1.000
    N4      N    0.24997   0.35339   0.64678   1.000
    N5      N    0.24256   0.63930   0.85062   1.000
    Zr6     Zr   0.24999   0.64547   0.35451   1.000
    O7      O    0.41947   0.65056   0.35853   1.000
    O8      O    0.24994   0.46299   0.34900   1.000
    O9      O    0.25002   0.65124   0.53707   1.000
    O10     O    0.24283   0.63473   0.16863   1.000
    O11     O    0.25712   0.83121   0.36484   1.000
    O12     O    0.08042   0.64134   0.34945   1.000
    Zr13    Zr   0.75003   0.35455   0.64548   1.000
    O14     O    0.91953   0.35868   0.65053   1.000
    O15     O    0.75720   0.36529   0.83136   1.000
    O16     O    0.75009   0.53703   0.65099   1.000
    O17     O    0.74290   0.16880   0.63515   1.000
    O18     O    0.75000   0.34878   0.46292   1.000
    O19     O    0.58048   0.34946   0.64146   1.000
loop_
    _geom_bond_atom_site_label_1
    _geom_bond_atom_site_label_2
    _geom_bond_distance
    _geom_bond_site_symmetry_2
    _ccdc_geom_bond_type
    Zr6    O7        2.34560      .   S
    N1     O7        4.61597      .   S
    Zr6    O8        2.70998      .   S
    N2     O8        4.81651      .   S
    Zr6    O9        2.70733      .   S
    N5     O9        4.81285      .   S
    Zr6    O10       2.71552      .   S
    N5     O10       4.81455  1_556   S
    Zr6    O11       2.71819      .   S
    N2     O11       4.81799  1_545   S
    Zr6    O12       2.34687      .   S
    N1     O12       4.62086  1_655   S
    Zr13   O14       2.34587      .   S
    N4     O14       4.61783  1_455   S
    Zr13   O15       2.71553      .   S
    N0     O15       4.81453  1_554   S
    Zr13   O16       2.70997      .   S
    N3     O16       4.81651      .   S
    Zr13   O17       2.71818      .   S
    N3     O17       4.81801  1_565   S
    Zr13   O18       2.70732      .   S
    N0     O18       4.81287      .   S
    Zr13   O19       2.34661      .   S
    N4     O19       4.61899      .   S
