# CIF file generated by openbabel 2.4.90, see http://openbabel.sf.net
data_I
_chemical_name_common ''
_cell_length_a 12.599
_cell_length_b 17.292
_cell_length_c 19.294
_cell_angle_alpha 65.181
_cell_angle_beta 84.55
_cell_angle_gamma 83.659
_space_group_name_H-M_alt 'P 1'
_space_group_name_Hall 'P 1'
loop_
    _symmetry_equiv_pos_as_xyz
    x,y,z
loop_
    _atom_site_label
    _atom_site_type_symbol
    _atom_site_fract_x
    _atom_site_fract_y
    _atom_site_fract_z
    _atom_site_occupancy
    N0      N    0.62698   0.31713   0.92778   1.000
    N1      N    0.62698   0.81714   0.42790   1.000
    N2      N    0.62698   0.81714   0.92789   1.000
    N3      N    0.13224   0.10935   0.34240   1.000
    N4      N    0.13223   0.10936   0.84232   1.000
    N5      N    0.13224   0.60937   0.34240   1.000
    N6      N    0.13223   0.60937   0.84232   1.000
    N7      N    0.63223   0.10935   0.34240   1.000
    N8      N    0.63223   0.10936   0.84232   1.000
    N9      N    0.63223   0.60936   0.34240   1.000
    N10     N    0.63223   0.60937   0.84232   1.000
    N11     N    0.12699   0.31712   0.42789   1.000
    N12     N    0.12698   0.31713   0.92788   1.000
    N13     N    0.12698   0.81714   0.42790   1.000
    N14     N    0.12698   0.81714   0.92788   1.000
    N15     N    0.62698   0.31712   0.42790   1.000
    N16     N    0.37300   0.18290   0.07206   1.000
    N17     N    0.37300   0.18290   0.57206   1.000
    N18     N    0.37300   0.68291   0.07204   1.000
    N19     N    0.37300   0.68292   0.57207   1.000
    N20     N    0.87300   0.18290   0.07208   1.000
    N21     N    0.87300   0.18290   0.57207   1.000
    N22     N    0.87300   0.68291   0.07208   1.000
    N23     N    0.87299   0.68292   0.57207   1.000
    N24     N    0.36775   0.39067   0.15758   1.000
    N25     N    0.36775   0.39067   0.65757   1.000
    N26     N    0.36775   0.89068   0.15758   1.000
    N27     N    0.36775   0.89069   0.65757   1.000
    N28     N    0.86775   0.39067   0.15758   1.000
    N29     N    0.86775   0.39067   0.65757   1.000
    N30     N    0.86775   0.89068   0.15758   1.000
    N31     N    0.86774   0.89069   0.65757   1.000
    Zr32    Zr   0.39296   0.93136   0.96671   1.000
    O33     O    0.30981   0.89225   0.95062   1.000
    O34     O    0.38449   0.84930   0.00904   1.000
    O35     O    0.46846   0.99318   0.92777   1.000
    O36     O    0.30827   0.99249   0.92811   1.000
    Zr37    Zr   0.60703   0.06868   0.03327   1.000
    O38     O    0.69172   0.00755   0.07185   1.000
    O39     O    0.53153   0.00685   0.07214   1.000
    O40     O    0.69017   0.10779   0.04936   1.000
    O41     O    0.61549   0.15074   0.99089   1.000
    Zr42    Zr   0.60702   0.06869   0.53326   1.000
    O43     O    0.61549   0.15074   0.49092   1.000
    O44     O    0.69171   0.00756   0.57184   1.000
    O45     O    0.53152   0.00686   0.57213   1.000
    O46     O    0.69017   0.10780   0.54935   1.000
    Zr47    Zr   0.60702   0.56869   0.03327   1.000
    O48     O    0.53153   0.50686   0.07214   1.000
    O49     O    0.69172   0.50756   0.07185   1.000
    O50     O    0.69017   0.60780   0.04936   1.000
    O51     O    0.61548   0.65075   0.99092   1.000
    Zr52    Zr   0.60702   0.56870   0.53326   1.000
    O53     O    0.53152   0.50686   0.57213   1.000
    O54     O    0.69171   0.50756   0.57184   1.000
    O55     O    0.69017   0.60781   0.54935   1.000
    O56     O    0.61548   0.65075   0.49092   1.000
    Zr57    Zr   0.14005   0.26473   0.14984   1.000
    O58     O    0.05656   0.23351   0.12371   1.000
    O59     O    0.13424   0.29102   0.07421   1.000
    Zr60    Zr   0.14005   0.26473   0.64983   1.000
    O61     O    0.05656   0.23351   0.62370   1.000
    O62     O    0.13424   0.29102   0.57420   1.000
    Zr63    Zr   0.14005   0.76474   0.14984   1.000
    O64     O    0.13424   0.79103   0.07421   1.000
    O65     O    0.05656   0.73352   0.12371   1.000
    Zr66    Zr   0.14004   0.76475   0.64983   1.000
    O67     O    0.05656   0.73353   0.62370   1.000
    O68     O    0.13423   0.79103   0.57421   1.000
    Zr69    Zr   0.64005   0.26473   0.14984   1.000
    O70     O    0.55656   0.23351   0.12370   1.000
    O71     O    0.63424   0.29102   0.07409   1.000
    Zr72    Zr   0.64004   0.26473   0.64983   1.000
    O73     O    0.55656   0.23351   0.62370   1.000
    O74     O    0.63423   0.29102   0.57421   1.000
    Zr75    Zr   0.64004   0.76474   0.14984   1.000
    O76     O    0.55656   0.73352   0.12370   1.000
    O77     O    0.63423   0.79103   0.07421   1.000
    Zr78    Zr   0.64004   0.76475   0.64983   1.000
    O79     O    0.55656   0.73353   0.62370   1.000
    O80     O    0.63423   0.79103   0.57421   1.000
    Zr81    Zr   0.10703   0.06868   0.03327   1.000
    O82     O    0.11549   0.15074   0.99092   1.000
    O83     O    0.19172   0.00755   0.07185   1.000
    O84     O    0.03153   0.00685   0.07214   1.000
    O85     O    0.19017   0.10779   0.04935   1.000
    Zr86    Zr   0.10703   0.06869   0.53326   1.000
    O87     O    0.11549   0.15074   0.49092   1.000
    O88     O    0.03152   0.00686   0.57213   1.000
    O89     O    0.19172   0.00756   0.57184   1.000
    O90     O    0.19017   0.10780   0.54935   1.000
    Zr91    Zr   0.10703   0.56869   0.03327   1.000
    O92     O    0.19017   0.60780   0.04935   1.000
    O93     O    0.19172   0.50756   0.07185   1.000
    O94     O    0.03153   0.50686   0.07214   1.000
    O95     O    0.11549   0.65075   0.99092   1.000
    Zr96    Zr   0.10702   0.56870   0.53326   1.000
    O97     O    0.11549   0.65075   0.49092   1.000
    O98     O    0.19171   0.50756   0.57184   1.000
    O99     O    0.03152   0.50686   0.57213   1.000
    O100    O    0.19017   0.60781   0.54935   1.000
    Zr101   Zr   0.35994   0.23529   0.35010   1.000
    O102    O    0.44343   0.26651   0.37625   1.000
    O103    O    0.36575   0.20901   0.42574   1.000
    Zr104   Zr   0.89296   0.93135   0.46672   1.000
    O105    O    0.80827   0.99248   0.42813   1.000
    O106    O    0.88449   0.84930   0.50906   1.000
    O107    O    0.80981   0.89224   0.45063   1.000
    O108    O    0.96846   0.99318   0.42785   1.000
    Zr109   Zr   0.89295   0.93136   0.96671   1.000
    O110    O    0.80826   0.99249   0.92811   1.000
    O111    O    0.88449   0.84930   0.00905   1.000
    O112    O    0.96845   0.99318   0.92777   1.000
    O113    O    0.80981   0.89225   0.95062   1.000
    Zr114   Zr   0.35994   0.23530   0.85014   1.000
    O115    O    0.36575   0.20901   0.92576   1.000
    O116    O    0.44342   0.26652   0.87624   1.000
    Zr117   Zr   0.35994   0.73531   0.35010   1.000
    O118    O    0.36575   0.70902   0.42574   1.000
    O119    O    0.44342   0.76653   0.37625   1.000
    Zr120   Zr   0.35994   0.73531   0.85014   1.000
    O121    O    0.36575   0.70902   0.92576   1.000
    O122    O    0.44342   0.76653   0.87626   1.000
    Zr123   Zr   0.85994   0.23529   0.35010   1.000
    O124    O    0.86575   0.20901   0.42574   1.000
    O125    O    0.94342   0.26651   0.37624   1.000
    Zr126   Zr   0.85993   0.23530   0.85014   1.000
    O127    O    0.86575   0.20901   0.92577   1.000
    O128    O    0.94342   0.26652   0.87627   1.000
    Zr129   Zr   0.85993   0.73531   0.35015   1.000
    O130    O    0.94342   0.76653   0.37628   1.000
    O131    O    0.86574   0.70902   0.42577   1.000
    Zr132   Zr   0.85993   0.73531   0.85014   1.000
    O133    O    0.86574   0.70902   0.92577   1.000
    O134    O    0.94342   0.76653   0.87626   1.000
    Zr135   Zr   0.39296   0.43134   0.46672   1.000
    O136    O    0.30982   0.39223   0.45063   1.000
    O137    O    0.38450   0.34929   0.50905   1.000
    O138    O    0.46846   0.49318   0.42785   1.000
    O139    O    0.30827   0.49248   0.42813   1.000
    Zr140   Zr   0.39296   0.43134   0.96671   1.000
    O141    O    0.30981   0.39223   0.95061   1.000
    O142    O    0.46846   0.49318   0.92777   1.000
    O143    O    0.30827   0.49248   0.92811   1.000
    O144    O    0.38450   0.34929   0.00905   1.000
    Zr145   Zr   0.39296   0.93135   0.46672   1.000
    O146    O    0.46846   0.99318   0.42785   1.000
    O147    O    0.38449   0.84930   0.50906   1.000
    O148    O    0.30981   0.89224   0.45063   1.000
    O149    O    0.30827   0.99248   0.42813   1.000
    Zr150   Zr   0.89296   0.43134   0.46672   1.000
    O151    O    0.80827   0.49248   0.42813   1.000
    O152    O    0.88449   0.34929   0.50906   1.000
    O153    O    0.96846   0.49318   0.42785   1.000
    O154    O    0.80981   0.39223   0.45063   1.000
    Zr155   Zr   0.89296   0.43134   0.96671   1.000
    O156    O    0.88449   0.34929   0.00905   1.000
    O157    O    0.80826   0.49248   0.92811   1.000
    O158    O    0.96846   0.49318   0.92777   1.000
    O159    O    0.80981   0.39223   0.95059   1.000
    O160    O    0.13764   0.71195   0.71422   1.000
    O161    O    0.28812   0.68787   0.84740   1.000
    O162    O    0.11590   0.57868   0.96954   1.000
    O163    O    0.94842   0.68849   0.84710   1.000
    O164    O    0.61590   0.57868   0.96954   1.000
    O165    O    0.52805   0.60794   0.04553   1.000
    O166    O    0.21862   0.23774   0.12286   1.000
    O167    O    0.21187   0.31217   0.15256   1.000
    O168    O    0.05156   0.31155   0.15284   1.000
    O169    O    0.13764   0.21193   0.21425   1.000
    O170    O    0.55155   0.81157   0.65283   1.000
    O171    O    0.21186   0.81219   0.65255   1.000
    O172    O    0.36234   0.78811   0.78573   1.000
    O173    O    0.38408   0.92138   0.53040   1.000
    O174    O    0.71186   0.31217   0.65255   1.000
    O175    O    0.05156   0.31155   0.65283   1.000
    O176    O    0.86234   0.28810   0.78573   1.000
    O177    O    0.88408   0.42136   0.53040   1.000
    O178    O    0.71186   0.81219   0.65255   1.000
    O179    O    0.05155   0.81157   0.65283   1.000
    O180    O    0.88408   0.92138   0.53040   1.000
    O181    O    0.86234   0.78811   0.78573   1.000
    O182    O    0.71862   0.73775   0.12286   1.000
    O183    O    0.55156   0.81156   0.15284   1.000
    O184    O    0.71186   0.81218   0.15256   1.000
    O185    O    0.63764   0.71194   0.21425   1.000
    O186    O    0.71861   0.73776   0.62285   1.000
    O187    O    0.63763   0.71195   0.71422   1.000
    O188    O    0.02805   0.10793   0.04554   1.000
    O189    O    0.11591   0.07866   0.96954   1.000
    O190    O    0.55156   0.31155   0.15284   1.000
    O191    O    0.71862   0.23774   0.12286   1.000
    O192    O    0.71186   0.31217   0.15256   1.000
    O193    O    0.63764   0.21193   0.21425   1.000
    O194    O    0.21861   0.73776   0.62285   1.000
    O195    O    0.71861   0.23774   0.62285   1.000
    O196    O    0.55155   0.31155   0.65283   1.000
    O197    O    0.63764   0.21193   0.71422   1.000
    O198    O    0.21862   0.73775   0.12285   1.000
    O199    O    0.21187   0.81218   0.15256   1.000
    O200    O    0.05156   0.81156   0.15284   1.000
    O201    O    0.13764   0.71194   0.21425   1.000
    O202    O    0.52804   0.60795   0.54553   1.000
    O203    O    0.21862   0.23774   0.62285   1.000
    O204    O    0.52805   0.10793   0.54553   1.000
    O205    O    0.02805   0.60795   0.54553   1.000
    O206    O    0.02805   0.10793   0.54553   1.000
    O207    O    0.11591   0.07866   0.46958   1.000
    O208    O    0.61590   0.07866   0.96954   1.000
    O209    O    0.52805   0.10793   0.04553   1.000
    O210    O    0.61590   0.57868   0.46958   1.000
    O211    O    0.21187   0.31217   0.65255   1.000
    O212    O    0.36234   0.28810   0.78573   1.000
    O213    O    0.38408   0.42136   0.53040   1.000
    O214    O    0.28137   0.26229   0.87711   1.000
    O215    O    0.97193   0.39210   0.95444   1.000
    O216    O    0.47193   0.89211   0.95443   1.000
    O217    O    0.78136   0.76230   0.87711   1.000
    O218    O    0.13764   0.21193   0.71422   1.000
    O219    O    0.44842   0.68849   0.84710   1.000
    O220    O    0.78811   0.68787   0.84740   1.000
    O221    O    0.78812   0.18785   0.84740   1.000
    O222    O    0.44843   0.18848   0.84710   1.000
    O223    O    0.28136   0.76230   0.87711   1.000
    O224    O    0.97193   0.89211   0.95443   1.000
    O225    O    0.97193   0.89211   0.45445   1.000
    O226    O    0.61590   0.07866   0.46958   1.000
    O227    O    0.11590   0.57868   0.46958   1.000
    O228    O    0.38408   0.42136   0.03039   1.000
    O229    O    0.36235   0.28809   0.28571   1.000
    O230    O    0.02805   0.60794   0.04554   1.000
    O231    O    0.88407   0.92138   0.03039   1.000
    O232    O    0.86234   0.28809   0.28571   1.000
    O233    O    0.88408   0.42136   0.03039   1.000
    O234    O    0.38408   0.92138   0.03039   1.000
    O235    O    0.36235   0.78811   0.28571   1.000
    O236    O    0.86234   0.78811   0.28574   1.000
    O237    O    0.78812   0.18785   0.34740   1.000
    O238    O    0.44843   0.18847   0.34712   1.000
    O239    O    0.44843   0.68849   0.34712   1.000
    O240    O    0.78812   0.68786   0.34743   1.000
    O241    O    0.28137   0.26228   0.37709   1.000
    O242    O    0.97194   0.39209   0.45445   1.000
    O243    O    0.78137   0.26228   0.37709   1.000
    O244    O    0.94843   0.18847   0.34712   1.000
    O245    O    0.47194   0.39209   0.45445   1.000
    O246    O    0.28137   0.76230   0.37709   1.000
    O247    O    0.94842   0.18848   0.84710   1.000
    O248    O    0.78136   0.26229   0.87708   1.000
    O249    O    0.47193   0.39210   0.95437   1.000
    O250    O    0.28812   0.18785   0.84740   1.000
    O251    O    0.28812   0.18785   0.34740   1.000
    O252    O    0.78136   0.76230   0.37713   1.000
    O253    O    0.47193   0.89211   0.45445   1.000
    O254    O    0.28812   0.68786   0.34740   1.000
    O255    O    0.94843   0.68849   0.34715   1.000
loop_
    _geom_bond_atom_site_label_1
    _geom_bond_atom_site_label_2
    _geom_bond_distance
    _geom_bond_site_symmetry_2
    _ccdc_geom_bond_type
    Zr32   O33       1.43029      .   S
    N14    O33       2.91826      .   S
    Zr32   O34       1.31747  1_556   S
    N18    O34       2.62669      .   S
    Zr32   O35       1.42365      .   S
    N8     O35       2.91550  1_545   S
    Zr32   O36       1.43229      .   S
    N4     O36       2.93963  1_545   S
    Zr37   O38       1.43218      .   S
    N30    O38       2.93926  1_565   S
    Zr37   O39       1.42346      .   S
    N26    O39       2.91548  1_565   S
    Zr37   O40       1.43023      .   S
    N20    O40       2.91812      .   S
    Zr37   O41       1.31760  1_554   S
    N0     O41       2.62669      .   S
    Zr42   O43       1.31743      .   S
    N15    O43       2.62660      .   S
    Zr42   O44       1.43218      .   S
    N31    O44       2.93925  1_565   S
    Zr42   O45       1.42346      .   S
    N27    O45       2.91548  1_565   S
    Zr42   O46       1.43023      .   S
    N21    O46       2.91812      .   S
    Zr47   O48       1.42355      .   S
    N24    O48       2.91562      .   S
    Zr47   O49       1.43228      .   S
    N28    O49       2.93941      .   S
    Zr47   O50       1.43023      .   S
    N22    O50       2.91812      .   S
    Zr47   O51       1.31752  1_554   S
    N2     O51       2.62669      .   S
    Zr52   O53       1.42356      .   S
    N25    O53       2.91562      .   S
    Zr52   O54       1.43228      .   S
    N29    O54       2.93940      .   S
    Zr52   O55       1.43023      .   S
    N23    O55       2.91811      .   S
    Zr52   O56       1.31743      .   S
    N1     O56       2.62660      .   S
    Zr57   O58       1.45144      .   S
    N20    O58       2.95356  1_655   S
    Zr57   O59       1.34074      .   S
    N12    O59       2.67448  1_556   S
    Zr60   O61       1.45144      .   S
    N21    O61       2.95356  1_655   S
    Zr60   O62       1.34058      .   S
    N11    O62       2.67417      .   S
    Zr63   O64       1.34071      .   S
    N14    O64       2.67448  1_556   S
    Zr63   O65       1.45144      .   S
    N22    O65       2.95355  1_655   S
    Zr66   O67       1.45144      .   S
    N23    O67       2.95356  1_655   S
    Zr66   O68       1.34053      .   S
    N13    O68       2.67402      .   S
    Zr69   O70       1.45146      .   S
    N16    O70       2.95361      .   S
    Zr69   O71       1.34278      .   S
    N0     O71       2.67426  1_556   S
    Zr72   O73       1.45143      .   S
    N17    O73       2.95354      .   S
    Zr72   O74       1.34053      .   S
    N15    O74       2.67402      .   S
    Zr75   O76       1.45154      .   S
    N18    O76       2.95378      .   S
    Zr75   O77       1.34067      .   S
    N2     O77       2.67435  1_556   S
    Zr78   O79       1.45142      .   S
    N19    O79       2.95349      .   S
    Zr78   O80       1.34053      .   S
    N1     O80       2.67402      .   S
    Zr81   O82       1.31752  1_554   S
    N12    O82       2.62669      .   S
    Zr81   O83       1.43218      .   S
    N26    O83       2.93927  1_565   S
    Zr81   O84       1.42348      .   S
    N30    O84       2.91552  1_665   S
    Zr81   O85       1.43020      .   S
    N16    O85       2.91804      .   S
    Zr86   O87       1.31745      .   S
    N11    O87       2.62659      .   S
    Zr86   O88       1.42348      .   S
    N31    O88       2.91552  1_665   S
    Zr86   O89       1.43218      .   S
    N27    O89       2.93926  1_565   S
    Zr86   O90       1.43022      .   S
    N17    O90       2.91808      .   S
    Zr91   O92       1.43014      .   S
    N18    O92       2.91791      .   S
    Zr91   O93       1.43228      .   S
    N24    O93       2.93940      .   S
    Zr91   O94       1.42358      .   S
    N28    O94       2.91567  1_655   S
    Zr91   O95       1.31752  1_554   S
    N14    O95       2.62669      .   S
    Zr96   O97       1.31743      .   S
    N13    O97       2.62660      .   S
    Zr96   O98       1.43228      .   S
    N25    O98       2.93941      .   S
    Zr96   O99       1.42358      .   S
    N29    O99       2.91566  1_655   S
    Zr96   O100      1.43024      .   S
    N19    O100      2.91812      .   S
    Zr101  O102      1.45161      .   S
    N15    O102      2.95378      .   S
    Zr101  O103      1.34079      .   S
    N17    O103      2.67445      .   S
    Zr104  O105      1.43220      .   S
    N7     O105      2.93930  1_545   S
    Zr104  O106      1.31744      .   S
    N23    O106      2.62660      .   S
    Zr104  O107      1.43026      .   S
    N1     O107      2.91816      .   S
    Zr104  O108      1.42349      .   S
    N3     O108      2.91554  1_445   S
    Zr109  O110      1.43229      .   S
    N8     O110      2.93962  1_545   S
    Zr109  O111      1.31750  1_556   S
    N22    O111      2.62669      .   S
    Zr109  O112      1.42367      .   S
    N4     O112      2.91554  1_445   S
    Zr109  O113      1.43026      .   S
    N2     O113      2.91820      .   S
    Zr114  O115      1.34054      .   S
    N16    O115      2.67395  1_554   S
    Zr114  O116      1.45108      .   S
    N0     O116      2.95254      .   S
    Zr117  O118      1.34082      .   S
    N19    O118      2.67454      .   S
    Zr117  O119      1.45161      .   S
    N1     O119      2.95377      .   S
    Zr120  O121      1.34044      .   S
    N18    O121      2.67364  1_554   S
    Zr120  O122      1.45129      .   S
    N2     O122      2.95349      .   S
    Zr123  O124      1.34081      .   S
    N21    O124      2.67452      .   S
    Zr123  O125      1.45158      .   S
    N11    O125      2.95375  1_455   S
    Zr126  O127      1.34060      .   S
    N20    O127      2.67414  1_554   S
    Zr126  O128      1.45137      .   S
    N12    O128      2.95336  1_455   S
    Zr129  O130      1.45142      .   S
    N13    O130      2.95350  1_455   S
    Zr129  O131      1.34046      .   S
    N23    O131      2.67390      .   S
    Zr132  O133      1.34060      .   S
    N22    O133      2.67414  1_554   S
    Zr132  O134      1.45128      .   S
    N14    O134      2.95346  1_455   S
    Zr135  O136      1.43029      .   S
    N11    O136      2.91822      .   S
    Zr135  O137      1.31743      .   S
    N17    O137      2.62660      .   S
    Zr135  O138      1.42357      .   S
    N9     O138      2.91565      .   S
    Zr135  O139      1.43230      .   S
    N5     O139      2.93945      .   S
    Zr140  O141      1.43032      .   S
    N12    O141      2.91824      .   S
    Zr140  O142      1.42375      .   S
    N10    O142      2.91565      .   S
    Zr140  O143      1.43238      .   S
    N6     O143      2.93976      .   S
    Zr140  O144      1.31749  1_556   S
    N16    O144      2.62669      .   S
    Zr145  O146      1.42347      .   S
    N7     O146      2.91551  1_545   S
    Zr145  O147      1.31744      .   S
    N19    O147      2.62660      .   S
    Zr145  O148      1.43025      .   S
    N13    O148      2.91817      .   S
    Zr145  O149      1.43220      .   S
    N3     O149      2.93930  1_545   S
    Zr150  O151      1.43230      .   S
    N9     O151      2.93945      .   S
    Zr150  O152      1.31743      .   S
    N21    O152      2.62660      .   S
    Zr150  O153      1.42359      .   S
    N5     O153      2.91569  1_455   S
    Zr150  O154      1.43026      .   S
    N15    O154      2.91816      .   S
    Zr155  O156      1.31750  1_556   S
    N20    O156      2.62669      .   S
    Zr155  O157      1.43238      .   S
    N10    O157      2.93976      .   S
    Zr155  O158      1.42377      .   S
    N6     O158      2.91568  1_455   S
    Zr155  O159      1.43056      .   S
    N0     O159      2.91883      .   S
    N6     O160      2.36098      .   S
    Zr66   O160      1.19357      .   S
    N6     O161      2.53899      .   S
    Zr120  O161      1.30536      .   S
    N6     O162      2.27666      .   S
    Zr91   O162      1.16368  1_554   S
    N6     O163      2.57075  1_455   S
    Zr132  O163      1.31528      .   S
    Zr47   O164      1.16368  1_554   S
    N10    O164      2.27666      .   S
    Zr47   O165      1.20308      .   S
    N18    O165      2.35922      .   S
    Zr57   O166      1.21360      .   S
    N16    O166      2.37772      .   S
    Zr57   O167      1.30522      .   S
    N24    O167      2.53864      .   S
    Zr57   O168      1.31509      .   S
    N28    O168      2.57066  1_655   S
    Zr57   O169      1.19380      .   S
    N3     O169      2.36165      .   S
    N27    O170      2.57061      .   S
    Zr78   O170      1.31507      .   S
    N27    O171      2.53864      .   S
    Zr66   O171      1.30522      .   S
    N27    O172      2.36176      .   S
    Zr120  O172      1.19385      .   S
    N27    O173      2.27587      .   S
    Zr145  O173      1.16271      .   S
    N29    O174      2.53864      .   S
    Zr72   O174      1.30522      .   S
    N29    O175      2.57066  1_655   S
    Zr60   O175      1.31509      .   S
    N29    O176      2.36176      .   S
    Zr126  O176      1.19385      .   S
    N29    O177      2.27588      .   S
    Zr150  O177      1.16271      .   S
    N31    O178      2.53863      .   S
    Zr78   O178      1.30522      .   S
    N31    O179      2.57065  1_655   S
    Zr66   O179      1.31509      .   S
    N31    O180      2.27587      .   S
    Zr104  O180      1.16271      .   S
    N31    O181      2.36176      .   S
    Zr132  O181      1.19385      .   S
    Zr75   O182      1.21357      .   S
    N22    O182      2.37763      .   S
    Zr75   O183      1.31507      .   S
    N26    O183      2.57062      .   S
    Zr75   O184      1.30522      .   S
    N30    O184      2.53863      .   S
    Zr75   O185      1.19380      .   S
    N9     O185      2.36165      .   S
    Zr78   O186      1.21357      .   S
    N23    O186      2.37764      .   S
    Zr78   O187      1.19357      .   S
    N10    O187      2.36098      .   S
    Zr81   O188      1.20315      .   S
    N20    O188      2.35943  1_655   S
    Zr81   O189      1.16368  1_554   S
    N4     O189      2.27666      .   S
    Zr69   O190      1.31506      .   S
    N24    O190      2.57061      .   S
    Zr69   O191      1.21357      .   S
    N20    O191      2.37763      .   S
    Zr69   O192      1.30522      .   S
    N28    O192      2.53864      .   S
    Zr69   O193      1.19380      .   S
    N7     O193      2.36165      .   S
    Zr66   O194      1.21356      .   S
    N19    O194      2.37762      .   S
    Zr72   O195      1.21357      .   S
    N21    O195      2.37764      .   S
    Zr72   O196      1.31506      .   S
    N25    O196      2.57060      .   S
    Zr72   O197      1.19358      .   S
    N8     O197      2.36098      .   S
    Zr63   O198      1.21365      .   S
    N18    O198      2.37788      .   S
    Zr63   O199      1.30522      .   S
    N26    O199      2.53864      .   S
    Zr63   O200      1.31509      .   S
    N30    O200      2.57065  1_655   S
    Zr63   O201      1.19380      .   S
    N5     O201      2.36165      .   S
    N19    O202      2.35940      .   S
    Zr52   O202      1.20314      .   S
    N17    O203      2.37765      .   S
    Zr60   O203      1.21359      .   S
    N17    O204      2.35937      .   S
    Zr42   O204      1.20313      .   S
    N23    O205      2.35941  1_655   S
    Zr96   O205      1.20315      .   S
    N21    O206      2.35943  1_655   S
    Zr86   O206      1.20316      .   S
    Zr86   O207      1.16279      .   S
    N3     O207      2.27602      .   S
    Zr37   O208      1.16368  1_554   S
    N8     O208      2.27666      .   S
    Zr37   O209      1.20311      .   S
    N16    O209      2.35932      .   S
    Zr52   O210      1.16279      .   S
    N9     O210      2.27602      .   S
    N25    O211      2.53862      .   S
    Zr60   O211      1.30521      .   S
    N25    O212      2.36176      .   S
    Zr114  O212      1.19385      .   S
    N25    O213      2.27587      .   S
    Zr135  O213      1.16271      .   S
    N12    O214      2.37748      .   S
    Zr114  O214      1.21349      .   S
    N12    O215      2.35956  1_455   S
    Zr155  O215      1.20321      .   S
    N2     O216      2.35944      .   S
    Zr32   O216      1.20319      .   S
    N2     O217      2.37752      .   S
    Zr132  O217      1.21353      .   S
    Zr60   O218      1.19358      .   S
    N4     O218      2.36098      .   S
    N10    O219      2.57071      .   S
    Zr120  O219      1.31525      .   S
    N10    O220      2.53899      .   S
    Zr132  O220      1.30536      .   S
    N8     O221      2.53898      .   S
    Zr126  O221      1.30536      .   S
    N8     O222      2.57070      .   S
    Zr114  O222      1.31525      .   S
    N14    O223      2.37747      .   S
    Zr120  O223      1.21351      .   S
    N14    O224      2.35952  1_455   S
    Zr109  O224      1.20322      .   S
    Zr104  O225      1.20318      .   S
    N13    O225      2.35947  1_455   S
    Zr42   O226      1.16279      .   S
    N7     O226      2.27602      .   S
    Zr96   O227      1.16279      .   S
    N5     O227      2.27602      .   S
    N24    O228      2.27611      .   S
    Zr140  O228      1.16285  1_556   S
    N24    O229      2.36130      .   S
    Zr101  O229      1.19359      .   S
    Zr91   O230      1.20316      .   S
    N22    O230      2.35944  1_655   S
    Zr109  O231      1.16285  1_556   S
    N30    O231      2.27611      .   S
    N28    O232      2.36130      .   S
    Zr123  O232      1.19359      .   S
    N28    O233      2.27611      .   S
    Zr155  O233      1.16285  1_556   S
    N26    O234      2.27611      .   S
    Zr32   O234      1.16285  1_556   S
    N26    O235      2.36130      .   S
    Zr117  O235      1.19359      .   S
    N30    O236      2.36174      .   S
    Zr129  O236      1.19385      .   S
    N7     O237      2.53847      .   S
    Zr123  O237      1.30511      .   S
    N7     O238      2.57053      .   S
    Zr101  O238      1.31500      .   S
    N9     O239      2.57052      .   S
    Zr117  O239      1.31500      .   S
    N9     O240      2.53867      .   S
    Zr129  O240      1.30524      .   S
    N11    O241      2.37781      .   S
    Zr101  O241      1.21370      .   S
    N11    O242      2.35952  1_455   S
    Zr150  O242      1.20320      .   S
    Zr123  O243      1.21372      .   S
    N15    O243      2.37788      .   S
    Zr123  O244      1.31502      .   S
    N3     O244      2.57057  1_455   S
    N15    O245      2.35944      .   S
    Zr135  O245      1.20316      .   S
    N13    O246      2.37789      .   S
    Zr117  O246      1.21372      .   S
    Zr126  O247      1.31528      .   S
    N4     O247      2.57075  1_455   S
    Zr126  O248      1.21323      .   S
    N0     O248      2.37674      .   S
    Zr140  O249      1.20366      .   S
    N0     O249      2.35976      .   S
    Zr114  O250      1.30536      .   S
    N4     O250      2.53899      .   S
    N3     O251      2.53846      .   S
    Zr101  O251      1.30511      .   S
    N1     O252      2.37756      .   S
    Zr129  O252      1.21353      .   S
    N1     O253      2.35944      .   S
    Zr145  O253      1.20316      .   S
    Zr117  O254      1.30511      .   S
    N5     O254      2.53847      .   S
    N5     O255      2.57069  1_455   S
    Zr129  O255      1.31511      .   S
