# CIF file generated by openbabel 2.4.90, see http://openbabel.sf.net
data_I
_chemical_name_common ''
_cell_length_a 12.599
_cell_length_b 17.292
_cell_length_c 19.294
_cell_angle_alpha 65.181
_cell_angle_beta 84.55
_cell_angle_gamma 83.659
_space_group_name_H-M_alt 'P 1'
_space_group_name_Hall 'P 1'
loop_
    _symmetry_equiv_pos_as_xyz
    x,y,z
loop_
    _atom_site_label
    _atom_site_type_symbol
    _atom_site_fract_x
    _atom_site_fract_y
    _atom_site_fract_z
    _atom_site_occupancy
    N0      N    0.62698   0.31713   0.92778   1.000
    N1      N    0.62698   0.81714   0.42790   1.000
    N2      N    0.62698   0.81714   0.92789   1.000
    N3      N    0.13224   0.10935   0.34240   1.000
    N4      N    0.13223   0.10936   0.84232   1.000
    N5      N    0.13224   0.60937   0.34240   1.000
    N6      N    0.13223   0.60937   0.84232   1.000
    N7      N    0.63223   0.10935   0.34240   1.000
    N8      N    0.63223   0.10936   0.84232   1.000
    N9      N    0.63223   0.60936   0.34240   1.000
    N10     N    0.63223   0.60937   0.84232   1.000
    N11     N    0.12699   0.31712   0.42789   1.000
    N12     N    0.12698   0.31713   0.92788   1.000
    N13     N    0.12698   0.81714   0.42790   1.000
    N14     N    0.12698   0.81714   0.92788   1.000
    N15     N    0.62698   0.31712   0.42790   1.000
    N16     N    0.37300   0.18290   0.07206   1.000
    N17     N    0.37300   0.18290   0.57206   1.000
    N18     N    0.37300   0.68291   0.07204   1.000
    N19     N    0.37300   0.68292   0.57207   1.000
    N20     N    0.87300   0.18290   0.07208   1.000
    N21     N    0.87300   0.18290   0.57207   1.000
    N22     N    0.87300   0.68291   0.07208   1.000
    N23     N    0.87299   0.68292   0.57207   1.000
    N24     N    0.36775   0.39067   0.15758   1.000
    N25     N    0.36775   0.39067   0.65757   1.000
    N26     N    0.36775   0.89068   0.15758   1.000
    N27     N    0.36775   0.89069   0.65757   1.000
    N28     N    0.86775   0.39067   0.15758   1.000
    N29     N    0.86775   0.39067   0.65757   1.000
    N30     N    0.86775   0.89068   0.15758   1.000
    N31     N    0.86774   0.89069   0.65757   1.000
    Zr32    Zr   0.39296   0.93136   0.96671   1.000
    O33     O    0.37042   0.92173   0.03025   1.000
    O34     O    0.30981   0.89225   0.95062   1.000
    O35     O    0.38449   0.84930   0.00904   1.000
    O36     O    0.39773   0.92103   0.03054   1.000
    O37     O    0.46846   0.99318   0.92777   1.000
    O38     O    0.30827   0.99249   0.92811   1.000
    O39     O    0.46406   0.88906   0.94912   1.000
    O40     O    0.47980   0.89517   0.95975   1.000
    Zr41    Zr   0.60703   0.06868   0.03327   1.000
    O42     O    0.62956   0.07831   0.96971   1.000
    O43     O    0.69172   0.00755   0.07185   1.000
    O44     O    0.53153   0.00685   0.07214   1.000
    O45     O    0.60225   0.07901   0.96937   1.000
    O46     O    0.69017   0.10779   0.04936   1.000
    O47     O    0.53592   0.11098   0.05085   1.000
    O48     O    0.52018   0.10487   0.04022   1.000
    O49     O    0.61549   0.15074   0.99089   1.000
    Zr50    Zr   0.60702   0.06869   0.53326   1.000
    O51     O    0.60225   0.07901   0.46944   1.000
    O52     O    0.61549   0.15074   0.49092   1.000
    O53     O    0.52017   0.10488   0.54021   1.000
    O54     O    0.69171   0.00756   0.57184   1.000
    O55     O    0.53152   0.00686   0.57213   1.000
    O56     O    0.53592   0.11098   0.55084   1.000
    O57     O    0.69017   0.10780   0.54935   1.000
    O58     O    0.62956   0.07831   0.46972   1.000
    Zr59    Zr   0.60702   0.56869   0.03327   1.000
    O60     O    0.52018   0.60489   0.04021   1.000
    O61     O    0.53592   0.61099   0.05084   1.000
    O62     O    0.53153   0.50686   0.07214   1.000
    O63     O    0.69172   0.50756   0.07185   1.000
    O64     O    0.62956   0.57833   0.96971   1.000
    O65     O    0.60225   0.57903   0.96937   1.000
    O66     O    0.69017   0.60780   0.04936   1.000
    O67     O    0.61548   0.65075   0.99092   1.000
    Zr68    Zr   0.60702   0.56870   0.53326   1.000
    O69     O    0.53152   0.50686   0.57213   1.000
    O70     O    0.52017   0.60489   0.54021   1.000
    O71     O    0.69171   0.50756   0.57184   1.000
    O72     O    0.69017   0.60781   0.54935   1.000
    O73     O    0.62955   0.57833   0.46972   1.000
    O74     O    0.60225   0.57903   0.46944   1.000
    O75     O    0.53592   0.61100   0.55084   1.000
    O76     O    0.61548   0.65075   0.49092   1.000
    Zr77    Zr   0.14005   0.26473   0.14984   1.000
    O78     O    0.22643   0.24515   0.12351   1.000
    O79     O    0.21236   0.31758   0.14471   1.000
    O80     O    0.05656   0.23351   0.12371   1.000
    O81     O    0.05095   0.30621   0.16068   1.000
    O82     O    0.05217   0.31688   0.14499   1.000
    O83     O    0.13424   0.29102   0.07421   1.000
    O84     O    0.21138   0.30676   0.16041   1.000
    O85     O    0.15118   0.21166   0.21438   1.000
    O86     O    0.21081   0.23032   0.12221   1.000
    O87     O    0.12411   0.21220   0.21411   1.000
    Zr88    Zr   0.14005   0.26473   0.64983   1.000
    O89     O    0.22643   0.24516   0.62350   1.000
    O90     O    0.05216   0.31688   0.64498   1.000
    O91     O    0.05656   0.23351   0.62370   1.000
    O92     O    0.21138   0.30677   0.66040   1.000
    O93     O    0.21235   0.31758   0.64470   1.000
    O94     O    0.13424   0.29102   0.57420   1.000
    O95     O    0.05095   0.30622   0.66067   1.000
    O96     O    0.21081   0.23032   0.62220   1.000
    O97     O    0.12410   0.21221   0.71408   1.000
    O98     O    0.15118   0.21166   0.71436   1.000
    Zr99    Zr   0.14005   0.76474   0.14984   1.000
    O100    O    0.13424   0.79103   0.07421   1.000
    O101    O    0.22643   0.74517   0.12350   1.000
    O102    O    0.21081   0.73033   0.12220   1.000
    O103    O    0.05656   0.73352   0.12371   1.000
    O104    O    0.21236   0.81759   0.14471   1.000
    O105    O    0.05095   0.80623   0.16068   1.000
    O106    O    0.05216   0.81689   0.14499   1.000
    O107    O    0.21138   0.80678   0.16041   1.000
    O108    O    0.12410   0.71222   0.21411   1.000
    O109    O    0.15118   0.71167   0.21438   1.000
    Zr110   Zr   0.14004   0.76475   0.64983   1.000
    O111    O    0.22642   0.74517   0.62350   1.000
    O112    O    0.05216   0.81690   0.64498   1.000
    O113    O    0.21137   0.80678   0.66040   1.000
    O114    O    0.21081   0.73034   0.62220   1.000
    O115    O    0.05656   0.73353   0.62370   1.000
    O116    O    0.21235   0.81760   0.64470   1.000
    O117    O    0.12410   0.71222   0.71408   1.000
    O118    O    0.13423   0.79103   0.57421   1.000
    O119    O    0.05095   0.80623   0.66067   1.000
    O120    O    0.15117   0.71167   0.71436   1.000
    Zr121   Zr   0.64005   0.26473   0.14984   1.000
    O122    O    0.55656   0.23351   0.12370   1.000
    O123    O    0.72643   0.24515   0.12351   1.000
    O124    O    0.71081   0.23032   0.12221   1.000
    O125    O    0.71137   0.30676   0.16041   1.000
    O126    O    0.71235   0.31758   0.14471   1.000
    O127    O    0.55216   0.31688   0.14499   1.000
    O128    O    0.55095   0.30621   0.16068   1.000
    O129    O    0.62410   0.21220   0.21411   1.000
    O130    O    0.63424   0.29102   0.07409   1.000
    O131    O    0.65118   0.21166   0.21438   1.000
    Zr132   Zr   0.64004   0.26473   0.64983   1.000
    O133    O    0.62410   0.21221   0.71408   1.000
    O134    O    0.72642   0.24516   0.62350   1.000
    O135    O    0.71081   0.23032   0.62220   1.000
    O136    O    0.71137   0.30677   0.66040   1.000
    O137    O    0.55656   0.23351   0.62370   1.000
    O138    O    0.71235   0.31758   0.64470   1.000
    O139    O    0.65117   0.21166   0.71436   1.000
    O140    O    0.63423   0.29102   0.57421   1.000
    O141    O    0.55216   0.31688   0.64498   1.000
    O142    O    0.55095   0.30622   0.66067   1.000
    Zr143   Zr   0.64004   0.76474   0.14984   1.000
    O144    O    0.62410   0.71222   0.21411   1.000
    O145    O    0.65118   0.71167   0.21438   1.000
    O146    O    0.71137   0.80678   0.16041   1.000
    O147    O    0.71081   0.73033   0.12221   1.000
    O148    O    0.55656   0.73352   0.12370   1.000
    O149    O    0.71235   0.81759   0.14471   1.000
    O150    O    0.72642   0.74517   0.12351   1.000
    O151    O    0.55095   0.80623   0.16068   1.000
    O152    O    0.55216   0.81689   0.14499   1.000
    O153    O    0.63423   0.79103   0.07421   1.000
    Zr154   Zr   0.64004   0.76475   0.64983   1.000
    O155    O    0.62410   0.71222   0.71408   1.000
    O156    O    0.72642   0.74517   0.62350   1.000
    O157    O    0.71080   0.73034   0.62220   1.000
    O158    O    0.71137   0.80678   0.66040   1.000
    O159    O    0.55656   0.73353   0.62370   1.000
    O160    O    0.71235   0.81760   0.64470   1.000
    O161    O    0.55095   0.80623   0.66067   1.000
    O162    O    0.55216   0.81690   0.64498   1.000
    O163    O    0.65117   0.71167   0.71436   1.000
    O164    O    0.63423   0.79103   0.57421   1.000
    Zr165   Zr   0.10703   0.06868   0.03327   1.000
    O166    O    0.11549   0.15074   0.99092   1.000
    O167    O    0.02018   0.10487   0.04022   1.000
    O168    O    0.03592   0.11098   0.05085   1.000
    O169    O    0.19172   0.00755   0.07185   1.000
    O170    O    0.03153   0.00685   0.07214   1.000
    O171    O    0.12956   0.07831   0.96971   1.000
    O172    O    0.10225   0.07901   0.96937   1.000
    O173    O    0.19017   0.10779   0.04935   1.000
    Zr174   Zr   0.10703   0.06869   0.53326   1.000
    O175    O    0.11549   0.15074   0.49092   1.000
    O176    O    0.03152   0.00686   0.57213   1.000
    O177    O    0.02018   0.10488   0.54021   1.000
    O178    O    0.03592   0.11098   0.55084   1.000
    O179    O    0.19172   0.00756   0.57184   1.000
    O180    O    0.10225   0.07901   0.46944   1.000
    O181    O    0.19017   0.10780   0.54935   1.000
    O182    O    0.12956   0.07831   0.46972   1.000
    Zr183   Zr   0.10703   0.56869   0.03327   1.000
    O184    O    0.12956   0.57833   0.96971   1.000
    O185    O    0.02018   0.60489   0.04022   1.000
    O186    O    0.19017   0.60780   0.04935   1.000
    O187    O    0.19172   0.50756   0.07185   1.000
    O188    O    0.03592   0.61099   0.05085   1.000
    O189    O    0.03153   0.50686   0.07214   1.000
    O190    O    0.11549   0.65075   0.99092   1.000
    O191    O    0.10225   0.57903   0.96937   1.000
    Zr192   Zr   0.10702   0.56870   0.53326   1.000
    O193    O    0.11549   0.65075   0.49092   1.000
    O194    O    0.19171   0.50756   0.57184   1.000
    O195    O    0.03152   0.50686   0.57213   1.000
    O196    O    0.02017   0.60489   0.54021   1.000
    O197    O    0.03592   0.61100   0.55084   1.000
    O198    O    0.12956   0.57833   0.46972   1.000
    O199    O    0.10225   0.57903   0.46944   1.000
    O200    O    0.19017   0.60781   0.54935   1.000
    Zr201   Zr   0.35994   0.23529   0.35010   1.000
    O202    O    0.28918   0.26970   0.37774   1.000
    O203    O    0.44343   0.26651   0.37625   1.000
    O204    O    0.37589   0.28782   0.28585   1.000
    O205    O    0.27356   0.25487   0.37644   1.000
    O206    O    0.44782   0.18314   0.35496   1.000
    O207    O    0.34881   0.28836   0.28557   1.000
    O208    O    0.36575   0.20901   0.42574   1.000
    O209    O    0.44904   0.19380   0.33927   1.000
    O210    O    0.28861   0.19326   0.33954   1.000
    O211    O    0.28763   0.18244   0.35525   1.000
    Zr212   Zr   0.89296   0.93135   0.46672   1.000
    O213    O    0.87042   0.92173   0.53025   1.000
    O214    O    0.96406   0.88906   0.44914   1.000
    O215    O    0.80827   0.99248   0.42813   1.000
    O216    O    0.97981   0.89516   0.45976   1.000
    O217    O    0.88449   0.84930   0.50906   1.000
    O218    O    0.89773   0.92103   0.53054   1.000
    O219    O    0.80981   0.89224   0.45063   1.000
    O220    O    0.96846   0.99318   0.42785   1.000
    Zr221   Zr   0.89295   0.93136   0.96671   1.000
    O222    O    0.80826   0.99249   0.92811   1.000
    O223    O    0.88449   0.84930   0.00905   1.000
    O224    O    0.87042   0.92173   0.03025   1.000
    O225    O    0.89773   0.92103   0.03054   1.000
    O226    O    0.96406   0.88906   0.94911   1.000
    O227    O    0.97980   0.89517   0.95975   1.000
    O228    O    0.96845   0.99318   0.92777   1.000
    O229    O    0.80981   0.89225   0.95062   1.000
    Zr230   Zr   0.35994   0.23530   0.85014   1.000
    O231    O    0.34881   0.28837   0.78559   1.000
    O232    O    0.28917   0.26970   0.87776   1.000
    O233    O    0.37588   0.28782   0.78587   1.000
    O234    O    0.44903   0.19381   0.83928   1.000
    O235    O    0.44782   0.18315   0.85492   1.000
    O236    O    0.27356   0.25487   0.87646   1.000
    O237    O    0.36575   0.20901   0.92576   1.000
    O238    O    0.28763   0.18245   0.85525   1.000
    O239    O    0.28861   0.19326   0.83955   1.000
    O240    O    0.44342   0.26652   0.87624   1.000
    Zr241   Zr   0.35994   0.73531   0.35010   1.000
    O242    O    0.37588   0.78783   0.28585   1.000
    O243    O    0.28918   0.76971   0.37774   1.000
    O244    O    0.44903   0.69382   0.33927   1.000
    O245    O    0.44782   0.68316   0.35496   1.000
    O246    O    0.27356   0.75488   0.37645   1.000
    O247    O    0.28861   0.69327   0.33954   1.000
    O248    O    0.36575   0.70902   0.42574   1.000
    O249    O    0.34881   0.78838   0.28557   1.000
    O250    O    0.44342   0.76653   0.37625   1.000
    O251    O    0.28763   0.68246   0.35525   1.000
    Zr252   Zr   0.35994   0.73531   0.85014   1.000
    O253    O    0.28763   0.68246   0.85525   1.000
    O254    O    0.27356   0.75489   0.87646   1.000
    O255    O    0.37588   0.78784   0.78587   1.000
    O256    O    0.34880   0.78838   0.78559   1.000
    O257    O    0.36575   0.70902   0.92576   1.000
    O258    O    0.44903   0.69382   0.83928   1.000
    O259    O    0.44782   0.68316   0.85492   1.000
    O260    O    0.28917   0.76972   0.87776   1.000
    O261    O    0.44342   0.76653   0.87626   1.000
    O262    O    0.28861   0.69328   0.83955   1.000
    Zr263   Zr   0.85994   0.23529   0.35010   1.000
    O264    O    0.87588   0.28782   0.28585   1.000
    O265    O    0.78917   0.26970   0.37774   1.000
    O266    O    0.84881   0.28836   0.28557   1.000
    O267    O    0.78763   0.18244   0.35525   1.000
    O268    O    0.77356   0.25487   0.37645   1.000
    O269    O    0.86575   0.20901   0.42574   1.000
    O270    O    0.78861   0.19326   0.33954   1.000
    O271    O    0.94342   0.26651   0.37624   1.000
    O272    O    0.94782   0.18314   0.35496   1.000
    O273    O    0.94904   0.19380   0.33927   1.000
    Zr274   Zr   0.85993   0.23530   0.85014   1.000
    O275    O    0.78763   0.18245   0.85525   1.000
    O276    O    0.84880   0.28837   0.78559   1.000
    O277    O    0.86575   0.20901   0.92577   1.000
    O278    O    0.78861   0.19326   0.83955   1.000
    O279    O    0.87588   0.28782   0.78587   1.000
    O280    O    0.94342   0.26652   0.87627   1.000
    O281    O    0.94903   0.19381   0.83928   1.000
    O282    O    0.94782   0.18315   0.85492   1.000
    O283    O    0.77356   0.25487   0.87644   1.000
    O284    O    0.78917   0.26970   0.87773   1.000
    Zr285   Zr   0.85993   0.73531   0.35015   1.000
    O286    O    0.78763   0.68246   0.35528   1.000
    O287    O    0.94342   0.76653   0.37628   1.000
    O288    O    0.87588   0.78783   0.28588   1.000
    O289    O    0.84880   0.78838   0.28560   1.000
    O290    O    0.86574   0.70902   0.42577   1.000
    O291    O    0.78861   0.69327   0.33958   1.000
    O292    O    0.94903   0.69382   0.33930   1.000
    O293    O    0.94782   0.68316   0.35499   1.000
    O294    O    0.77356   0.75488   0.37648   1.000
    O295    O    0.78917   0.76971   0.37777   1.000
    Zr296   Zr   0.85993   0.73531   0.85014   1.000
    O297    O    0.94903   0.69382   0.83928   1.000
    O298    O    0.78762   0.68246   0.85525   1.000
    O299    O    0.86574   0.70902   0.92577   1.000
    O300    O    0.87588   0.78784   0.78587   1.000
    O301    O    0.94342   0.76653   0.87626   1.000
    O302    O    0.84880   0.78838   0.78559   1.000
    O303    O    0.94782   0.68316   0.85492   1.000
    O304    O    0.77355   0.75489   0.87647   1.000
    O305    O    0.78860   0.69328   0.83955   1.000
    O306    O    0.78917   0.76972   0.87776   1.000
    Zr307   Zr   0.39296   0.43134   0.46672   1.000
    O308    O    0.30982   0.39223   0.45063   1.000
    O309    O    0.37043   0.42171   0.53025   1.000
    O310    O    0.46406   0.38904   0.44914   1.000
    O311    O    0.38450   0.34929   0.50905   1.000
    O312    O    0.47981   0.39515   0.45976   1.000
    O313    O    0.39774   0.42101   0.53054   1.000
    O314    O    0.46846   0.49318   0.42785   1.000
    O315    O    0.30827   0.49248   0.42813   1.000
    Zr316   Zr   0.39296   0.43134   0.96671   1.000
    O317    O    0.39773   0.42101   0.03054   1.000
    O318    O    0.37043   0.42171   0.03025   1.000
    O319    O    0.30981   0.39223   0.95061   1.000
    O320    O    0.46846   0.49318   0.92777   1.000
    O321    O    0.30827   0.49248   0.92811   1.000
    O322    O    0.38450   0.34929   0.00905   1.000
    O323    O    0.46406   0.38905   0.94910   1.000
    O324    O    0.47981   0.39515   0.95964   1.000
    Zr325   Zr   0.39296   0.93135   0.46672   1.000
    O326    O    0.37042   0.92173   0.53025   1.000
    O327    O    0.46846   0.99318   0.42785   1.000
    O328    O    0.38449   0.84930   0.50906   1.000
    O329    O    0.39773   0.92103   0.53054   1.000
    O330    O    0.30981   0.89224   0.45063   1.000
    O331    O    0.30827   0.99248   0.42813   1.000
    O332    O    0.46406   0.88906   0.44914   1.000
    O333    O    0.47981   0.89516   0.45976   1.000
    Zr334   Zr   0.89296   0.43134   0.46672   1.000
    O335    O    0.87042   0.42171   0.53025   1.000
    O336    O    0.96406   0.38904   0.44913   1.000
    O337    O    0.97981   0.39515   0.45976   1.000
    O338    O    0.80827   0.49248   0.42813   1.000
    O339    O    0.88449   0.34929   0.50906   1.000
    O340    O    0.89773   0.42101   0.53054   1.000
    O341    O    0.96846   0.49318   0.42785   1.000
    O342    O    0.80981   0.39223   0.45063   1.000
    Zr343   Zr   0.89296   0.43134   0.96671   1.000
    O344    O    0.87042   0.42171   0.03025   1.000
    O345    O    0.88449   0.34929   0.00905   1.000
    O346    O    0.89773   0.42101   0.03054   1.000
    O347    O    0.97980   0.39515   0.95975   1.000
    O348    O    0.96406   0.38905   0.94912   1.000
    O349    O    0.80826   0.49248   0.92811   1.000
    O350    O    0.96846   0.49318   0.92777   1.000
    O351    O    0.80981   0.39223   0.95059   1.000
loop_
    _geom_bond_atom_site_label_1
    _geom_bond_atom_site_label_2
    _geom_bond_distance
    _geom_bond_site_symmetry_2
    _ccdc_geom_bond_type
    Zr32   O33       1.17657  1_556   S
    N26    O33       2.28161      .   S
    Zr32   O34       1.43029      .   S
    N14    O34       2.91826      .   S
    Zr32   O35       1.31747  1_556   S
    N18    O35       2.62669      .   S
    Zr32   O36       1.17434  1_556   S
    N26    O36       2.28354      .   S
    Zr32   O37       1.42365      .   S
    N8     O37       2.91550  1_545   S
    Zr32   O38       1.43229      .   S
    N4     O38       2.93963  1_545   S
    Zr32   O39       1.20774      .   S
    N2     O39       2.37311      .   S
    Zr32   O40       1.22404      .   S
    N2     O40       2.35877      .   S
    Zr41   O42       1.17693  1_554   S
    N8     O42       2.28263      .   S
    Zr41   O43       1.43218      .   S
    N30    O43       2.93926  1_565   S
    Zr41   O44       1.42346      .   S
    N26    O44       2.91548  1_565   S
    Zr41   O45       1.17565  1_554   S
    N8     O45       2.28364      .   S
    Zr41   O46       1.43023      .   S
    N20    O46       2.91812      .   S
    Zr41   O47       1.20760      .   S
    N16    O47       2.37304      .   S
    Zr41   O48       1.22401      .   S
    N16    O48       2.35860      .   S
    Zr41   O49       1.31760  1_554   S
    N0     O49       2.62669      .   S
    Zr50   O51       1.17429      .   S
    N7     O51       2.28345      .   S
    Zr50   O52       1.31743      .   S
    N15    O52       2.62660      .   S
    Zr50   O53       1.22403      .   S
    N17    O53       2.35866      .   S
    Zr50   O54       1.43218      .   S
    N31    O54       2.93925  1_565   S
    Zr50   O55       1.42346      .   S
    N27    O55       2.91548  1_565   S
    Zr50   O56       1.20762      .   S
    N17    O56       2.37308      .   S
    Zr50   O57       1.43023      .   S
    N21    O57       2.91812      .   S
    Zr50   O58       1.17652      .   S
    N7     O58       2.28152      .   S
    Zr59   O60       1.22399      .   S
    N18    O60       2.35848      .   S
    Zr59   O61       1.20755      .   S
    N18    O61       2.37296      .   S
    Zr59   O62       1.42355      .   S
    N24    O62       2.91562      .   S
    Zr59   O63       1.43228      .   S
    N28    O63       2.93941      .   S
    Zr59   O64       1.17693  1_554   S
    N10    O64       2.28262      .   S
    Zr59   O65       1.17565  1_554   S
    N10    O65       2.28363      .   S
    Zr59   O66       1.43023      .   S
    N22    O66       2.91812      .   S
    Zr59   O67       1.31752  1_554   S
    N2     O67       2.62669      .   S
    Zr68   O69       1.42356      .   S
    N25    O69       2.91562      .   S
    Zr68   O70       1.22403      .   S
    N19    O70       2.35869      .   S
    Zr68   O71       1.43228      .   S
    N29    O71       2.93940      .   S
    Zr68   O72       1.43023      .   S
    N23    O72       2.91811      .   S
    Zr68   O73       1.17652      .   S
    N9     O73       2.28152      .   S
    Zr68   O74       1.17429      .   S
    N9     O74       2.28346      .   S
    Zr68   O75       1.20763      .   S
    N19    O75       2.37311      .   S
    Zr68   O76       1.31743      .   S
    N1     O76       2.62660      .   S
    Zr77   O78       1.23088      .   S
    N16    O78       2.37990      .   S
    Zr77   O79       1.32880      .   S
    N24    O79       2.52877      .   S
    Zr77   O80       1.45144      .   S
    N20    O80       2.95356  1_655   S
    Zr77   O81       1.31226      .   S
    N28    O81       2.58307  1_655   S
    Zr77   O82       1.33277      .   S
    N28    O82       2.56587  1_655   S
    Zr77   O83       1.34074      .   S
    N12    O83       2.67448  1_556   S
    Zr77   O84       1.29656      .   S
    N24    O84       2.55621      .   S
    Zr77   O85       1.20745      .   S
    N3     O85       2.36648      .   S
    Zr77   O86       1.22143      .   S
    N16    O86       2.38840      .   S
    Zr77   O87       1.20432      .   S
    N3     O87       2.36909      .   S
    Zr88   O89       1.23087      .   S
    N17    O89       2.37982      .   S
    Zr88   O90       1.33277      .   S
    N29    O90       2.56587  1_655   S
    Zr88   O91       1.45144      .   S
    N21    O91       2.95356  1_655   S
    Zr88   O92       1.29655      .   S
    N25    O92       2.55620      .   S
    Zr88   O93       1.32880      .   S
    N25    O93       2.52876      .   S
    Zr88   O94       1.34058      .   S
    N11    O94       2.67417      .   S
    Zr88   O95       1.31226      .   S
    N29    O95       2.58307  1_655   S
    Zr88   O96       1.22140      .   S
    N17    O96       2.38834      .   S
    Zr88   O97       1.20411      .   S
    N4     O97       2.36842      .   S
    Zr88   O98       1.20723      .   S
    N4     O98       2.36582      .   S
    Zr99   O100      1.34071      .   S
    N14    O100      2.67448  1_556   S
    Zr99   O101      1.23092      .   S
    N18    O101      2.38008      .   S
    Zr99   O102      1.22149      .   S
    N18    O102      2.38855      .   S
    Zr99   O103      1.45144      .   S
    N22    O103      2.95355  1_655   S
    Zr99   O104      1.32880      .   S
    N26    O104      2.52877      .   S
    Zr99   O105      1.31226      .   S
    N30    O105      2.58306  1_655   S
    Zr99   O106      1.33277      .   S
    N30    O106      2.56587  1_655   S
    Zr99   O107      1.29656      .   S
    N26    O107      2.55621      .   S
    Zr99   O108      1.20432      .   S
    N5     O108      2.36909      .   S
    Zr99   O109      1.20745      .   S
    N5     O109      2.36648      .   S
    Zr110  O111      1.23084      .   S
    N19    O111      2.37980      .   S
    Zr110  O112      1.33277      .   S
    N31    O112      2.56586  1_655   S
    Zr110  O113      1.29656      .   S
    N27    O113      2.55622      .   S
    Zr110  O114      1.22139      .   S
    N19    O114      2.38830      .   S
    Zr110  O115      1.45144      .   S
    N23    O115      2.95356  1_655   S
    Zr110  O116      1.32881      .   S
    N27    O116      2.52878      .   S
    Zr110  O117      1.20411      .   S
    N6     O117      2.36842      .   S
    Zr110  O118      1.34053      .   S
    N13    O118      2.67402      .   S
    Zr110  O119      1.31226      .   S
    N31    O119      2.58306  1_655   S
    Zr110  O120      1.20723      .   S
    N6     O120      2.36582      .   S
    Zr121  O122      1.45146      .   S
    N16    O122      2.95361      .   S
    Zr121  O123      1.23085      .   S
    N20    O123      2.37981      .   S
    Zr121  O124      1.22139      .   S
    N20    O124      2.38832      .   S
    Zr121  O125      1.29656      .   S
    N28    O125      2.55622      .   S
    Zr121  O126      1.32880      .   S
    N28    O126      2.52878      .   S
    Zr121  O127      1.33275      .   S
    N24    O127      2.56582      .   S
    Zr121  O128      1.31223      .   S
    N24    O128      2.58302      .   S
    Zr121  O129      1.20432      .   S
    N7     O129      2.36909      .   S
    Zr121  O130      1.34278      .   S
    N0     O130      2.67426  1_556   S
    Zr121  O131      1.20745      .   S
    N7     O131      2.36648      .   S
    Zr132  O133      1.20411      .   S
    N8     O133      2.36842      .   S
    Zr132  O134      1.23086      .   S
    N21    O134      2.37981      .   S
    Zr132  O135      1.22140      .   S
    N21    O135      2.38832      .   S
    Zr132  O136      1.29655      .   S
    N29    O136      2.55621      .   S
    Zr132  O137      1.45143      .   S
    N17    O137      2.95354      .   S
    Zr132  O138      1.32880      .   S
    N29    O138      2.52877      .   S
    Zr132  O139      1.20723      .   S
    N8     O139      2.36582      .   S
    Zr132  O140      1.34053      .   S
    N15    O140      2.67402      .   S
    Zr132  O141      1.33274      .   S
    N25    O141      2.56581      .   S
    Zr132  O142      1.31223      .   S
    N25    O142      2.58301      .   S
    Zr143  O144      1.20432      .   S
    N9     O144      2.36909      .   S
    Zr143  O145      1.20745      .   S
    N9     O145      2.36648      .   S
    Zr143  O146      1.29655      .   S
    N30    O146      2.55621      .   S
    Zr143  O147      1.22139      .   S
    N22    O147      2.38831      .   S
    Zr143  O148      1.45154      .   S
    N18    O148      2.95378      .   S
    Zr143  O149      1.32880      .   S
    N30    O149      2.52876      .   S
    Zr143  O150      1.23085      .   S
    N22    O150      2.37981      .   S
    Zr143  O151      1.31224      .   S
    N26    O151      2.58303      .   S
    Zr143  O152      1.33275      .   S
    N26    O152      2.56583      .   S
    Zr143  O153      1.34067      .   S
    N2     O153      2.67435  1_556   S
    Zr154  O155      1.20411      .   S
    N10    O155      2.36842      .   S
    Zr154  O156      1.23085      .   S
    N23    O156      2.37983      .   S
    Zr154  O157      1.22139      .   S
    N23    O157      2.38832      .   S
    Zr154  O158      1.29655      .   S
    N31    O158      2.55621      .   S
    Zr154  O159      1.45142      .   S
    N19    O159      2.95349      .   S
    Zr154  O160      1.32880      .   S
    N31    O160      2.52877      .   S
    Zr154  O161      1.31224      .   S
    N27    O161      2.58303      .   S
    Zr154  O162      1.33275      .   S
    N27    O162      2.56583      .   S
    Zr154  O163      1.20723      .   S
    N10    O163      2.36582      .   S
    Zr154  O164      1.34053      .   S
    N1     O164      2.67402      .   S
    Zr165  O166      1.31752  1_554   S
    N12    O166      2.62669      .   S
    Zr165  O167      1.22405      .   S
    N20    O167      2.35871  1_655   S
    Zr165  O168      1.20764      .   S
    N20    O168      2.37314  1_655   S
    Zr165  O169      1.43218      .   S
    N26    O169      2.93927  1_565   S
    Zr165  O170      1.42348      .   S
    N30    O170      2.91552  1_665   S
    Zr165  O171      1.17693  1_554   S
    N4     O171      2.28263      .   S
    Zr165  O172      1.17565  1_554   S
    N4     O172      2.28364      .   S
    Zr165  O173      1.43020      .   S
    N16    O173      2.91804      .   S
    Zr174  O175      1.31745      .   S
    N11    O175      2.62659      .   S
    Zr174  O176      1.42348      .   S
    N31    O176      2.91552  1_665   S
    Zr174  O177      1.22405      .   S
    N21    O177      2.35871  1_655   S
    Zr174  O178      1.20764      .   S
    N21    O178      2.37314  1_655   S
    Zr174  O179      1.43218      .   S
    N27    O179      2.93926  1_565   S
    Zr174  O180      1.17429      .   S
    N3     O180      2.28345      .   S
    Zr174  O181      1.43022      .   S
    N17    O181      2.91808      .   S
    Zr174  O182      1.17652      .   S
    N3     O182      2.28152      .   S
    Zr183  O184      1.17693  1_554   S
    N6     O184      2.28263      .   S
    Zr183  O185      1.22406      .   S
    N22    O185      2.35872  1_655   S
    Zr183  O186      1.43014      .   S
    N18    O186      2.91791      .   S
    Zr183  O187      1.43228      .   S
    N24    O187      2.93940      .   S
    Zr183  O188      1.20765      .   S
    N22    O188      2.37315  1_655   S
    Zr183  O189      1.42358      .   S
    N28    O189      2.91567  1_655   S
    Zr183  O190      1.31752  1_554   S
    N14    O190      2.62669      .   S
    Zr183  O191      1.17565  1_554   S
    N6     O191      2.28363      .   S
    Zr192  O193      1.31743      .   S
    N13    O193      2.62660      .   S
    Zr192  O194      1.43228      .   S
    N25    O194      2.93941      .   S
    Zr192  O195      1.42358      .   S
    N29    O195      2.91566  1_655   S
    Zr192  O196      1.22405      .   S
    N23    O196      2.35870  1_655   S
    Zr192  O197      1.20763      .   S
    N23    O197      2.37313  1_655   S
    Zr192  O198      1.17652      .   S
    N5     O198      2.28152      .   S
    Zr192  O199      1.17429      .   S
    N5     O199      2.28346      .   S
    Zr192  O200      1.43024      .   S
    N19    O200      2.91812      .   S
    Zr201  O202      1.22153      .   S
    N11    O202      2.38848      .   S
    Zr201  O203      1.45161      .   S
    N15    O203      2.95378      .   S
    Zr201  O204      1.20412      .   S
    N24    O204      2.36874      .   S
    Zr201  O205      1.23096      .   S
    N11    O205      2.38000      .   S
    Zr201  O206      1.33271      .   S
    N7     O206      2.56573      .   S
    Zr201  O207      1.20724      .   S
    N24    O207      2.36614      .   S
    Zr201  O208      1.34079      .   S
    N17    O208      2.67445      .   S
    Zr201  O209      1.31215      .   S
    N7     O209      2.58297      .   S
    Zr201  O210      1.29642      .   S
    N3     O210      2.55606      .   S
    Zr201  O211      1.32872      .   S
    N3     O211      2.52858      .   S
    Zr212  O213      1.17644      .   S
    N31    O213      2.28137      .   S
    Zr212  O214      1.20767      .   S
    N13    O214      2.37318  1_455   S
    Zr212  O215      1.43220      .   S
    N7     O215      2.93930  1_545   S
    Zr212  O216      1.22407      .   S
    N13    O216      2.35876  1_455   S
    Zr212  O217      1.31744      .   S
    N23    O217      2.62660      .   S
    Zr212  O218      1.17420      .   S
    N31    O218      2.28331      .   S
    Zr212  O219      1.43026      .   S
    N1     O219      2.91816      .   S
    Zr212  O220      1.42349      .   S
    N3     O220      2.91554  1_445   S
    Zr221  O222      1.43229      .   S
    N8     O222      2.93962  1_545   S
    Zr221  O223      1.31750  1_556   S
    N22    O223      2.62669      .   S
    Zr221  O224      1.17657  1_556   S
    N30    O224      2.28161      .   S
    Zr221  O225      1.17434  1_556   S
    N30    O225      2.28354      .   S
    Zr221  O226      1.20777      .   S
    N14    O226      2.37320  1_455   S
    Zr221  O227      1.22408      .   S
    N14    O227      2.35886  1_455   S
    Zr221  O228      1.42367      .   S
    N4     O228      2.91554  1_445   S
    Zr221  O229      1.43026      .   S
    N2     O229      2.91820      .   S
    Zr230  O231      1.20751      .   S
    N25    O231      2.36659      .   S
    Zr230  O232      1.22129      .   S
    N12    O232      2.38818      .   S
    Zr230  O233      1.20438      .   S
    N25    O233      2.36920      .   S
    Zr230  O234      1.31235      .   S
    N8     O234      2.58315      .   S
    Zr230  O235      1.33292      .   S
    N8     O235      2.56584      .   S
    Zr230  O236      1.23079      .   S
    N12    O236      2.37963      .   S
    Zr230  O237      1.34054      .   S
    N16    O237      2.67395  1_554   S
    Zr230  O238      1.32891      .   S
    N4     O238      2.52917      .   S
    Zr230  O239      1.29673      .   S
    N4     O239      2.55652      .   S
    Zr230  O240      1.45108      .   S
    N0     O240      2.95254      .   S
    Zr241  O242      1.20412      .   S
    N26    O242      2.36874      .   S
    Zr241  O243      1.22157      .   S
    N13    O243      2.38855      .   S
    Zr241  O244      1.31214      .   S
    N9     O244      2.58296      .   S
    Zr241  O245      1.33271      .   S
    N9     O245      2.56572      .   S
    Zr241  O246      1.23098      .   S
    N13    O246      2.38009      .   S
    Zr241  O247      1.29642      .   S
    N5     O247      2.55607      .   S
    Zr241  O248      1.34082      .   S
    N19    O248      2.67454      .   S
    Zr241  O249      1.20724      .   S
    N26    O249      2.36613      .   S
    Zr241  O250      1.45161      .   S
    N1     O250      2.95377      .   S
    Zr241  O251      1.32872      .   S
    N5     O251      2.52859      .   S
    Zr252  O253      1.32891      .   S
    N6     O253      2.52917      .   S
    Zr252  O254      1.23079      .   S
    N14    O254      2.37964      .   S
    Zr252  O255      1.20438      .   S
    N27    O255      2.36920      .   S
    Zr252  O256      1.20751      .   S
    N27    O256      2.36659      .   S
    Zr252  O257      1.34044      .   S
    N18    O257      2.67364  1_554   S
    Zr252  O258      1.31235      .   S
    N10    O258      2.58316      .   S
    Zr252  O259      1.33293      .   S
    N10    O259      2.56585      .   S
    Zr252  O260      1.22133      .   S
    N14    O260      2.38816      .   S
    Zr252  O261      1.45129      .   S
    N2     O261      2.95349      .   S
    Zr252  O262      1.29673      .   S
    N6     O262      2.55652      .   S
    Zr263  O264      1.20412      .   S
    N28    O264      2.36874      .   S
    Zr263  O265      1.22156      .   S
    N15    O265      2.38855      .   S
    Zr263  O266      1.20724      .   S
    N28    O266      2.36614      .   S
    Zr263  O267      1.32872      .   S
    N7     O267      2.52859      .   S
    Zr263  O268      1.23098      .   S
    N15    O268      2.38008      .   S
    Zr263  O269      1.34081      .   S
    N21    O269      2.67452      .   S
    Zr263  O270      1.29642      .   S
    N7     O270      2.55607      .   S
    Zr263  O271      1.45158      .   S
    N11    O271      2.95375  1_455   S
    Zr263  O272      1.33273      .   S
    N3     O272      2.56576  1_455   S
    Zr263  O273      1.31217      .   S
    N3     O273      2.58300  1_455   S
    Zr274  O275      1.32891      .   S
    N8     O275      2.52917      .   S
    Zr274  O276      1.20751      .   S
    N29    O276      2.36659      .   S
    Zr274  O277      1.34060      .   S
    N20    O277      2.67414  1_554   S
    Zr274  O278      1.29673      .   S
    N8     O278      2.55651      .   S
    Zr274  O279      1.20438      .   S
    N29    O279      2.36920      .   S
    Zr274  O280      1.45137      .   S
    N12    O280      2.95336  1_455   S
    Zr274  O281      1.31237      .   S
    N4     O281      2.58320  1_455   S
    Zr274  O282      1.33295      .   S
    N4     O282      2.56589  1_455   S
    Zr274  O283      1.23057      .   S
    N0     O283      2.37885      .   S
    Zr274  O284      1.22101      .   S
    N0     O284      2.38750      .   S
    Zr285  O286      1.32882      .   S
    N9     O286      2.52881      .   S
    Zr285  O287      1.45142      .   S
    N13    O287      2.95350  1_455   S
    Zr285  O288      1.20437      .   S
    N30    O288      2.36918      .   S
    Zr285  O289      1.20750      .   S
    N30    O289      2.36657      .   S
    Zr285  O290      1.34046      .   S
    N23    O290      2.67390      .   S
    Zr285  O291      1.29658      .   S
    N9     O291      2.55624      .   S
    Zr285  O292      1.31229      .   S
    N5     O292      2.58309  1_455   S
    Zr285  O293      1.33279      .   S
    N5     O293      2.56591  1_455   S
    Zr285  O294      1.23081      .   S
    N1     O294      2.37974      .   S
    Zr285  O295      1.22135      .   S
    N1     O295      2.38825      .   S
    Zr296  O297      1.31238      .   S
    N6     O297      2.58320  1_455   S
    Zr296  O298      1.32891      .   S
    N10    O298      2.52917      .   S
    Zr296  O299      1.34060      .   S
    N22    O299      2.67414  1_554   S
    Zr296  O300      1.20438      .   S
    N31    O300      2.36920      .   S
    Zr296  O301      1.45128      .   S
    N14    O301      2.95346  1_455   S
    Zr296  O302      1.20751      .   S
    N31    O302      2.36659      .   S
    Zr296  O303      1.33295      .   S
    N6     O303      2.56589  1_455   S
    Zr296  O304      1.23081      .   S
    N2     O304      2.37970      .   S
    Zr296  O305      1.29673      .   S
    N10    O305      2.55652      .   S
    Zr296  O306      1.22135      .   S
    N2     O306      2.38821      .   S
    Zr307  O308      1.43029      .   S
    N11    O308      2.91822      .   S
    Zr307  O309      1.17644      .   S
    N25    O309      2.28137      .   S
    Zr307  O310      1.20766      .   S
    N15    O310      2.37314      .   S
    Zr307  O311      1.31743      .   S
    N17    O311      2.62660      .   S
    Zr307  O312      1.22405      .   S
    N15    O312      2.35873      .   S
    Zr307  O313      1.17420      .   S
    N25    O313      2.28331      .   S
    Zr307  O314      1.42357      .   S
    N9     O314      2.91565      .   S
    Zr307  O315      1.43230      .   S
    N5     O315      2.93945      .   S
    Zr316  O317      1.17434  1_556   S
    N24    O317      2.28354      .   S
    Zr316  O318      1.17657  1_556   S
    N24    O318      2.28161      .   S
    Zr316  O319      1.43032      .   S
    N12    O319      2.91824      .   S
    Zr316  O320      1.42375      .   S
    N10    O320      2.91565      .   S
    Zr316  O321      1.43238      .   S
    N6     O321      2.93976      .   S
    Zr316  O322      1.31749  1_556   S
    N16    O322      2.62669      .   S
    Zr316  O323      1.20792      .   S
    N0     O323      2.37367      .   S
    Zr316  O324      1.22458      .   S
    N0     O324      2.35874      .   S
    Zr325  O326      1.17644      .   S
    N27    O326      2.28137      .   S
    Zr325  O327      1.42347      .   S
    N7     O327      2.91551  1_545   S
    Zr325  O328      1.31744      .   S
    N19    O328      2.62660      .   S
    Zr325  O329      1.17421      .   S
    N27    O329      2.28331      .   S
    Zr325  O330      1.43025      .   S
    N13    O330      2.91817      .   S
    Zr325  O331      1.43220      .   S
    N3     O331      2.93930  1_545   S
    Zr325  O332      1.20766      .   S
    N1     O332      2.37315      .   S
    Zr325  O333      1.22405      .   S
    N1     O333      2.35874      .   S
    Zr334  O335      1.17644      .   S
    N29    O335      2.28137      .   S
    Zr334  O336      1.20770      .   S
    N11    O336      2.37322  1_455   S
    Zr334  O337      1.22408      .   S
    N11    O337      2.35882  1_455   S
    Zr334  O338      1.43230      .   S
    N9     O338      2.93945      .   S
    Zr334  O339      1.31743      .   S
    N21    O339      2.62660      .   S
    Zr334  O340      1.17420      .   S
    N29    O340      2.28331      .   S
    Zr334  O341      1.42359      .   S
    N5     O341      2.91569  1_455   S
    Zr334  O342      1.43026      .   S
    N15    O342      2.91816      .   S
    Zr343  O344      1.17657  1_556   S
    N28    O344      2.28161      .   S
    Zr343  O345      1.31750  1_556   S
    N20    O345      2.62669      .   S
    Zr343  O346      1.17434  1_556   S
    N28    O346      2.28354      .   S
    Zr343  O347      1.22409      .   S
    N12    O347      2.35887  1_455   S
    Zr343  O348      1.20770      .   S
    N12    O348      2.37326  1_455   S
    Zr343  O349      1.43238      .   S
    N10    O349      2.93976      .   S
    Zr343  O350      1.42377      .   S
    N6     O350      2.91568  1_455   S
    Zr343  O351      1.43056      .   S
    N0     O351      2.91883      .   S
