# CIF file generated by openbabel 2.4.90, see http://openbabel.sf.net
data_I
_chemical_name_common ''
_cell_length_a 12.599
_cell_length_b 17.292
_cell_length_c 19.294
_cell_angle_alpha 65.181
_cell_angle_beta 84.55
_cell_angle_gamma 83.659
_space_group_name_H-M_alt 'P 1'
_space_group_name_Hall 'P 1'
loop_
    _symmetry_equiv_pos_as_xyz
    x,y,z
loop_
    _atom_site_label
    _atom_site_type_symbol
    _atom_site_fract_x
    _atom_site_fract_y
    _atom_site_fract_z
    _atom_site_occupancy
    Zr0     Zr   0.35994   0.23529   0.35010   1.000
    Zr1     Zr   0.35994   0.23530   0.85014   1.000
    Zr2     Zr   0.35994   0.73531   0.35010   1.000
    Zr3     Zr   0.35994   0.73531   0.85014   1.000
    Zr4     Zr   0.85994   0.23529   0.35010   1.000
    Zr5     Zr   0.85993   0.23530   0.85014   1.000
    Zr6     Zr   0.85993   0.73531   0.35015   1.000
    Zr7     Zr   0.85993   0.73531   0.85014   1.000
    Zr8     Zr   0.39296   0.43134   0.46672   1.000
    Zr9     Zr   0.39296   0.43134   0.96671   1.000
    Zr10    Zr   0.39296   0.93135   0.46672   1.000
    Zr11    Zr   0.39296   0.93136   0.96671   1.000
    Zr12    Zr   0.89296   0.43134   0.46672   1.000
    Zr13    Zr   0.89296   0.43134   0.96671   1.000
    Zr14    Zr   0.89296   0.93135   0.46672   1.000
    Zr15    Zr   0.89295   0.93136   0.96671   1.000
    Zr16    Zr   0.14005   0.26473   0.14984   1.000
    Zr17    Zr   0.14005   0.26473   0.64983   1.000
    Zr18    Zr   0.14005   0.76474   0.14984   1.000
    Zr19    Zr   0.14004   0.76475   0.64983   1.000
    Zr20    Zr   0.64005   0.26473   0.14984   1.000
    Zr21    Zr   0.64004   0.26473   0.64983   1.000
    Zr22    Zr   0.64004   0.76474   0.14984   1.000
    Zr23    Zr   0.64004   0.76475   0.64983   1.000
    Zr24    Zr   0.10703   0.06868   0.03327   1.000
    Zr25    Zr   0.10703   0.06869   0.53326   1.000
    Zr26    Zr   0.10703   0.56869   0.03327   1.000
    Zr27    Zr   0.10702   0.56870   0.53326   1.000
    Zr28    Zr   0.60703   0.06868   0.03327   1.000
    Zr29    Zr   0.60702   0.06869   0.53326   1.000
    Zr30    Zr   0.60702   0.56869   0.03327   1.000
    Zr31    Zr   0.60702   0.56870   0.53326   1.000
    N32     N    0.62698   0.31713   0.92778   1.000
    O33     O    0.52691   0.29773   0.90234   1.000
    O34     O    0.53516   0.34675   0.93148   1.000
    O35     O    0.68718   0.27445   0.90274   1.000
    O36     O    0.62395   0.23279   0.94852   1.000
    O37     O    0.56665   0.35896   0.95257   1.000
    O38     O    0.62842   0.31731   0.99835   1.000
    O39     O    0.71841   0.30411   0.90532   1.000
    O40     O    0.72666   0.35312   0.93447   1.000
    N41     N    0.62698   0.81714   0.42790   1.000
    O42     O    0.52691   0.79774   0.40240   1.000
    O43     O    0.53516   0.84676   0.43155   1.000
    O44     O    0.68718   0.77446   0.40280   1.000
    O45     O    0.62395   0.73280   0.44858   1.000
    O46     O    0.56665   0.85897   0.45281   1.000
    O47     O    0.62842   0.81732   0.49858   1.000
    O48     O    0.71841   0.80412   0.40540   1.000
    O49     O    0.72666   0.85314   0.43454   1.000
    N50     N    0.62698   0.81714   0.92789   1.000
    O51     O    0.52690   0.79775   0.90238   1.000
    O52     O    0.53516   0.84676   0.93152   1.000
    O53     O    0.68717   0.77446   0.90279   1.000
    O54     O    0.62395   0.73281   0.94857   1.000
    O55     O    0.56665   0.85897   0.95280   1.000
    O56     O    0.62842   0.81732   0.99858   1.000
    O57     O    0.71840   0.80413   0.90539   1.000
    O58     O    0.72666   0.85314   0.93453   1.000
    N59     N    0.13224   0.10935   0.34240   1.000
    O60     O    0.03571   0.13099   0.35982   1.000
    O61     O    0.09748   0.08934   0.40561   1.000
    O62     O    0.04396   0.05501   0.38898   1.000
    O63     O    0.10816   0.15968   0.27838   1.000
    O64     O    0.03813   0.15232   0.32844   1.000
    O65     O    0.22358   0.05361   0.38955   1.000
    O66     O    0.21532   0.12959   0.36039   1.000
    O67     O    0.15210   0.08794   0.40618   1.000
    O68     O    0.16231   0.15858   0.27892   1.000
    O69     O    0.21728   0.15122   0.32899   1.000
    N70     N    0.13223   0.10936   0.84232   1.000
    O71     O    0.03570   0.13100   0.85970   1.000
    O72     O    0.09748   0.08934   0.90548   1.000
    O73     O    0.04396   0.05501   0.88884   1.000
    O74     O    0.10816   0.15968   0.77833   1.000
    O75     O    0.03813   0.15232   0.82841   1.000
    O76     O    0.22358   0.05361   0.88950   1.000
    O77     O    0.21532   0.12960   0.86036   1.000
    O78     O    0.15209   0.08794   0.90614   1.000
    O79     O    0.16231   0.15859   0.77888   1.000
    O80     O    0.21728   0.15123   0.82896   1.000
    N81     N    0.13224   0.60937   0.34240   1.000
    O82     O    0.03570   0.63101   0.35984   1.000
    O83     O    0.09748   0.58935   0.40561   1.000
    O84     O    0.04396   0.55501   0.38898   1.000
    O85     O    0.10816   0.65969   0.27838   1.000
    O86     O    0.03813   0.65233   0.32845   1.000
    O87     O    0.22358   0.55362   0.38955   1.000
    O88     O    0.21532   0.62961   0.36039   1.000
    O89     O    0.15209   0.58796   0.40618   1.000
    O90     O    0.16231   0.65860   0.27892   1.000
    O91     O    0.21728   0.65124   0.32899   1.000
    N92     N    0.13223   0.60937   0.84232   1.000
    O93     O    0.04396   0.55502   0.88884   1.000
    O94     O    0.03570   0.63101   0.85970   1.000
    O95     O    0.09747   0.58936   0.90548   1.000
    O96     O    0.10815   0.65970   0.77833   1.000
    O97     O    0.03813   0.65234   0.82841   1.000
    O98     O    0.22357   0.55362   0.88950   1.000
    O99     O    0.21532   0.62961   0.86036   1.000
    O100    O    0.15209   0.58796   0.90614   1.000
    O101    O    0.16231   0.65860   0.77888   1.000
    O102    O    0.21728   0.65124   0.82896   1.000
    N103    N    0.63223   0.10935   0.34240   1.000
    O104    O    0.54396   0.05501   0.38898   1.000
    O105    O    0.53570   0.13099   0.35982   1.000
    O106    O    0.59747   0.08934   0.40561   1.000
    O107    O    0.60816   0.15968   0.27838   1.000
    O108    O    0.53813   0.15232   0.32844   1.000
    O109    O    0.72358   0.05361   0.38955   1.000
    O110    O    0.71532   0.12959   0.36039   1.000
    O111    O    0.65209   0.08794   0.40618   1.000
    O112    O    0.66231   0.15858   0.27892   1.000
    O113    O    0.71728   0.15122   0.32899   1.000
    N114    N    0.63223   0.10936   0.84232   1.000
    O115    O    0.54396   0.05501   0.88884   1.000
    O116    O    0.53570   0.13100   0.85970   1.000
    O117    O    0.59747   0.08934   0.90548   1.000
    O118    O    0.60815   0.15968   0.77833   1.000
    O119    O    0.53813   0.15232   0.82841   1.000
    O120    O    0.72357   0.05361   0.88950   1.000
    O121    O    0.71532   0.12960   0.86036   1.000
    O122    O    0.65209   0.08794   0.90614   1.000
    O123    O    0.66230   0.15859   0.77888   1.000
    O124    O    0.71728   0.15123   0.82896   1.000
    N125    N    0.63223   0.60936   0.34240   1.000
    O126    O    0.54396   0.55501   0.38898   1.000
    O127    O    0.53570   0.63100   0.35982   1.000
    O128    O    0.59747   0.58935   0.40561   1.000
    O129    O    0.60815   0.65969   0.27838   1.000
    O130    O    0.53813   0.65233   0.32844   1.000
    O131    O    0.72357   0.55362   0.38955   1.000
    O132    O    0.71532   0.62961   0.36040   1.000
    O133    O    0.65209   0.58796   0.40618   1.000
    O134    O    0.66231   0.65860   0.27892   1.000
    O135    O    0.71728   0.65124   0.32900   1.000
    N136    N    0.63223   0.60937   0.84232   1.000
    O137    O    0.54395   0.55502   0.88884   1.000
    O138    O    0.53570   0.63101   0.85970   1.000
    O139    O    0.59747   0.58936   0.90548   1.000
    O140    O    0.60815   0.65970   0.77833   1.000
    O141    O    0.53812   0.65234   0.82841   1.000
    O142    O    0.72357   0.55362   0.88950   1.000
    O143    O    0.71532   0.62961   0.86036   1.000
    O144    O    0.65209   0.58796   0.90614   1.000
    O145    O    0.66230   0.65860   0.77888   1.000
    O146    O    0.71727   0.65124   0.82896   1.000
    N147    N    0.12699   0.31712   0.42789   1.000
    O148    O    0.02691   0.29773   0.40239   1.000
    O149    O    0.03516   0.34674   0.43154   1.000
    O150    O    0.18718   0.27444   0.40279   1.000
    O151    O    0.12395   0.23279   0.44858   1.000
    O152    O    0.12843   0.31730   0.49858   1.000
    O153    O    0.06666   0.35895   0.45280   1.000
    O154    O    0.21841   0.30411   0.40538   1.000
    O155    O    0.22667   0.35312   0.43453   1.000
    N156    N    0.12698   0.31713   0.92788   1.000
    O157    O    0.02691   0.29773   0.90239   1.000
    O158    O    0.03516   0.34675   0.93153   1.000
    O159    O    0.18718   0.27445   0.90279   1.000
    O160    O    0.12395   0.23279   0.94857   1.000
    O161    O    0.06665   0.35896   0.95279   1.000
    O162    O    0.12843   0.31731   0.99857   1.000
    O163    O    0.21841   0.30411   0.90537   1.000
    O164    O    0.22666   0.35313   0.93452   1.000
    N165    N    0.12698   0.81714   0.42790   1.000
    O166    O    0.02691   0.79774   0.40241   1.000
    O167    O    0.03516   0.84676   0.43155   1.000
    O168    O    0.18718   0.77445   0.40279   1.000
    O169    O    0.12395   0.73280   0.44858   1.000
    O170    O    0.06665   0.85897   0.45281   1.000
    O171    O    0.12843   0.81732   0.49858   1.000
    O172    O    0.21841   0.80412   0.40538   1.000
    O173    O    0.22667   0.85314   0.43454   1.000
    N174    N    0.12698   0.81714   0.92788   1.000
    O175    O    0.02690   0.79775   0.90237   1.000
    O176    O    0.03516   0.84676   0.93152   1.000
    O177    O    0.18718   0.77446   0.90279   1.000
    O178    O    0.12395   0.73281   0.94857   1.000
    O179    O    0.06665   0.85897   0.95279   1.000
    O180    O    0.12842   0.81732   0.99857   1.000
    O181    O    0.21841   0.80413   0.90538   1.000
    O182    O    0.22666   0.85314   0.93452   1.000
    N183    N    0.62698   0.31712   0.42790   1.000
    O184    O    0.52691   0.29773   0.40240   1.000
    O185    O    0.53517   0.34674   0.43155   1.000
    O186    O    0.68718   0.27444   0.40279   1.000
    O187    O    0.62395   0.23279   0.44858   1.000
    O188    O    0.56666   0.35895   0.45281   1.000
    O189    O    0.62843   0.31730   0.49858   1.000
    O190    O    0.71841   0.30411   0.40538   1.000
    O191    O    0.72667   0.35312   0.43454   1.000
    N192    N    0.37300   0.18290   0.07206   1.000
    O193    O    0.47308   0.20229   0.09757   1.000
    O194    O    0.46482   0.15328   0.06843   1.000
    O195    O    0.37603   0.26723   0.05139   1.000
    O196    O    0.31281   0.22558   0.09717   1.000
    O197    O    0.37156   0.18272   0.00139   1.000
    O198    O    0.43333   0.14107   0.04717   1.000
    O199    O    0.28158   0.19591   0.09458   1.000
    O200    O    0.27332   0.14690   0.06544   1.000
    N201    N    0.37300   0.18290   0.57206   1.000
    O202    O    0.47307   0.20229   0.59756   1.000
    O203    O    0.46482   0.15328   0.56842   1.000
    O204    O    0.37603   0.26723   0.55139   1.000
    O205    O    0.31280   0.22558   0.59716   1.000
    O206    O    0.37156   0.18272   0.50137   1.000
    O207    O    0.43333   0.14107   0.54716   1.000
    O208    O    0.28157   0.19592   0.59457   1.000
    O209    O    0.27332   0.14691   0.56543   1.000
    N210    N    0.37300   0.68291   0.07204   1.000
    O211    O    0.47307   0.70230   0.09756   1.000
    O212    O    0.46482   0.65329   0.06841   1.000
    O213    O    0.37603   0.76725   0.05138   1.000
    O214    O    0.31280   0.72559   0.09716   1.000
    O215    O    0.37156   0.68273   0.00138   1.000
    O216    O    0.43333   0.64108   0.04716   1.000
    O217    O    0.28157   0.69593   0.09457   1.000
    O218    O    0.27332   0.64691   0.06543   1.000
    N219    N    0.37300   0.68292   0.57207   1.000
    O220    O    0.47307   0.70231   0.59757   1.000
    O221    O    0.46482   0.65330   0.56842   1.000
    O222    O    0.37603   0.76725   0.55139   1.000
    O223    O    0.31280   0.72560   0.59717   1.000
    O224    O    0.37156   0.68274   0.50138   1.000
    O225    O    0.43333   0.64109   0.54717   1.000
    O226    O    0.28157   0.69593   0.59458   1.000
    O227    O    0.27332   0.64692   0.56543   1.000
    N228    N    0.87300   0.18290   0.07208   1.000
    O229    O    0.97308   0.20229   0.09758   1.000
    O230    O    0.96482   0.15328   0.06843   1.000
    O231    O    0.87603   0.26723   0.05140   1.000
    O232    O    0.81280   0.22558   0.09718   1.000
    O233    O    0.87156   0.18272   0.00139   1.000
    O234    O    0.93333   0.14107   0.04718   1.000
    O235    O    0.78157   0.19591   0.09459   1.000
    O236    O    0.77332   0.14690   0.06544   1.000
    N237    N    0.87300   0.18290   0.57207   1.000
    O238    O    0.97307   0.20229   0.59757   1.000
    O239    O    0.96482   0.15328   0.56842   1.000
    O240    O    0.87603   0.26724   0.55139   1.000
    O241    O    0.81280   0.22558   0.59717   1.000
    O242    O    0.87155   0.18272   0.50138   1.000
    O243    O    0.93333   0.14107   0.54717   1.000
    O244    O    0.78157   0.19592   0.59458   1.000
    O245    O    0.77332   0.14690   0.56543   1.000
    N246    N    0.87300   0.68291   0.07208   1.000
    O247    O    0.97307   0.70230   0.09758   1.000
    O248    O    0.96482   0.65329   0.06843   1.000
    O249    O    0.87603   0.76725   0.05140   1.000
    O250    O    0.81280   0.72559   0.09718   1.000
    O251    O    0.87155   0.68273   0.00139   1.000
    O252    O    0.93333   0.64108   0.04718   1.000
    O253    O    0.77332   0.64691   0.06544   1.000
    O254    O    0.78157   0.69593   0.09459   1.000
    N255    N    0.87299   0.68292   0.57207   1.000
    O256    O    0.97307   0.70231   0.59757   1.000
    O257    O    0.96482   0.65330   0.56842   1.000
    O258    O    0.87603   0.76725   0.55139   1.000
    O259    O    0.81280   0.72560   0.59717   1.000
    O260    O    0.87155   0.68274   0.50139   1.000
    O261    O    0.93332   0.64109   0.54717   1.000
    O262    O    0.78157   0.69593   0.59458   1.000
    O263    O    0.77331   0.64692   0.56543   1.000
    N264    N    0.36775   0.39067   0.15758   1.000
    O265    O    0.39183   0.34034   0.22159   1.000
    O266    O    0.46186   0.34770   0.17153   1.000
    O267    O    0.45603   0.44502   0.11100   1.000
    O268    O    0.40251   0.41068   0.09436   1.000
    O269    O    0.46428   0.36903   0.14015   1.000
    O270    O    0.27641   0.44642   0.11044   1.000
    O271    O    0.34789   0.41208   0.09380   1.000
    O272    O    0.28467   0.37043   0.13958   1.000
    O273    O    0.33768   0.34144   0.22105   1.000
    O274    O    0.28271   0.34880   0.17098   1.000
    N275    N    0.36775   0.39067   0.65757   1.000
    O276    O    0.39183   0.34035   0.72159   1.000
    O277    O    0.46185   0.34771   0.67152   1.000
    O278    O    0.45602   0.44503   0.61099   1.000
    O279    O    0.40251   0.41069   0.59436   1.000
    O280    O    0.46428   0.36903   0.64013   1.000
    O281    O    0.27641   0.44642   0.61042   1.000
    O282    O    0.34789   0.41208   0.59379   1.000
    O283    O    0.28466   0.37043   0.63957   1.000
    O284    O    0.33768   0.34144   0.72105   1.000
    O285    O    0.28270   0.34880   0.67097   1.000
    N286    N    0.36775   0.89068   0.15758   1.000
    O287    O    0.45603   0.94503   0.11100   1.000
    O288    O    0.40251   0.91070   0.09436   1.000
    O289    O    0.46428   0.86904   0.14015   1.000
    O290    O    0.39183   0.84036   0.22159   1.000
    O291    O    0.46185   0.84772   0.17153   1.000
    O292    O    0.27641   0.94643   0.11044   1.000
    O293    O    0.34789   0.91209   0.09380   1.000
    O294    O    0.28466   0.87044   0.13958   1.000
    O295    O    0.33768   0.84145   0.22105   1.000
    O296    O    0.28270   0.84881   0.17098   1.000
    N297    N    0.36775   0.89069   0.65757   1.000
    O298    O    0.45602   0.94503   0.61099   1.000
    O299    O    0.40251   0.91070   0.59436   1.000
    O300    O    0.46428   0.86905   0.64013   1.000
    O301    O    0.39182   0.84036   0.72159   1.000
    O302    O    0.46185   0.84772   0.67152   1.000
    O303    O    0.27641   0.94643   0.61042   1.000
    O304    O    0.34789   0.91210   0.59379   1.000
    O305    O    0.28466   0.87045   0.63957   1.000
    O306    O    0.33767   0.84146   0.72105   1.000
    O307    O    0.28270   0.84882   0.67097   1.000
    N308    N    0.86775   0.39067   0.15758   1.000
    O309    O    0.95603   0.44502   0.11100   1.000
    O310    O    0.90251   0.41068   0.09436   1.000
    O311    O    0.96428   0.36903   0.14015   1.000
    O312    O    0.89183   0.34034   0.22159   1.000
    O313    O    0.96186   0.34770   0.17153   1.000
    O314    O    0.77641   0.44642   0.11044   1.000
    O315    O    0.84789   0.41208   0.09380   1.000
    O316    O    0.78466   0.37043   0.13958   1.000
    O317    O    0.83768   0.34144   0.22105   1.000
    O318    O    0.78270   0.34880   0.17098   1.000
    N319    N    0.86775   0.39067   0.65757   1.000
    O320    O    0.95602   0.44503   0.61099   1.000
    O321    O    0.90251   0.41069   0.59436   1.000
    O322    O    0.96428   0.36903   0.64013   1.000
    O323    O    0.89182   0.34035   0.72159   1.000
    O324    O    0.96185   0.34771   0.67152   1.000
    O325    O    0.77640   0.44642   0.61042   1.000
    O326    O    0.84789   0.41208   0.59379   1.000
    O327    O    0.78466   0.37043   0.63957   1.000
    O328    O    0.83767   0.34144   0.72105   1.000
    O329    O    0.78270   0.34880   0.67097   1.000
    N330    N    0.86775   0.89068   0.15758   1.000
    O331    O    0.95602   0.94503   0.11100   1.000
    O332    O    0.90251   0.91070   0.09436   1.000
    O333    O    0.96428   0.86904   0.14015   1.000
    O334    O    0.89182   0.84036   0.22161   1.000
    O335    O    0.96185   0.84772   0.17153   1.000
    O336    O    0.77641   0.94643   0.11044   1.000
    O337    O    0.84789   0.91209   0.09380   1.000
    O338    O    0.78466   0.87044   0.13958   1.000
    O339    O    0.83767   0.84145   0.22106   1.000
    O340    O    0.78270   0.84881   0.17098   1.000
    N341    N    0.86774   0.89069   0.65757   1.000
    O342    O    0.95602   0.94503   0.61099   1.000
    O343    O    0.90250   0.91070   0.59436   1.000
    O344    O    0.96428   0.86905   0.64013   1.000
    O345    O    0.89182   0.84036   0.72159   1.000
    O346    O    0.96185   0.84772   0.67152   1.000
    O347    O    0.77640   0.94643   0.61042   1.000
    O348    O    0.84789   0.91210   0.59379   1.000
    O349    O    0.78466   0.87045   0.63957   1.000
    O350    O    0.83767   0.84146   0.72105   1.000
    O351    O    0.78270   0.84882   0.67097   1.000
loop_
    _geom_bond_atom_site_label_1
    _geom_bond_atom_site_label_2
    _geom_bond_distance
    _geom_bond_site_symmetry_2
    _ccdc_geom_bond_type
    N32    O33       1.51396      .   S
    Zr1    O33       2.90215      .   S
    N32    O34       1.22060      .   S
    Zr9    O34       2.41583      .   S
    N32    O35       1.20807      .   S
    Zr5    O35       2.46115      .   S
    N32    O36       1.34455      .   S
    Zr28   O36       2.63520  1_554   S
    N32    O37       1.19569      .   S
    Zr9    O37       2.44917      .   S
    N32    O38       1.36475      .   S
    Zr20   O38       2.68556  1_554   S
    N32    O39       1.22267      .   S
    Zr5    O39       2.44201      .   S
    N32    O40       1.50076      .   S
    Zr13   O40       2.86111      .   S
    N41    O42       1.51464      .   S
    Zr2    O42       2.90321      .   S
    N41    O43       1.22043      .   S
    Zr10   O43       2.41532      .   S
    N41    O44       1.20874      .   S
    Zr6    O44       2.46163      .   S
    N41    O45       1.34471      .   S
    Zr31   O45       2.63487      .   S
    N41    O46       1.19700      .   S
    Zr10   O46       2.44810      .   S
    N41    O47       1.36687      .   S
    Zr23   O47       2.68106      .   S
    N41    O48       1.22302      .   S
    Zr6    O48       2.44270      .   S
    N41    O49       1.50042      .   S
    Zr14   O49       2.86052      .   S
    N50    O51       1.51466      .   S
    Zr3    O51       2.90258      .   S
    N50    O52       1.22039      .   S
    Zr11   O52       2.41548      .   S
    N50    O53       1.20870      .   S
    Zr7    O53       2.46162      .   S
    N50    O54       1.34471      .   S
    Zr30   O54       2.63505  1_554   S
    N50    O55       1.19705      .   S
    Zr11   O55       2.44809      .   S
    N50    O56       1.36707      .   S
    Zr22   O56       2.68134  1_554   S
    N50    O57       1.22298      .   S
    Zr7    O57       2.44270      .   S
    N50    O58       1.50044      .   S
    Zr15   O58       2.86053      .   S
    N59    O60       1.28827      .   S
    Zr4    O60       2.66546  1_655   S
    N59    O61       1.17340      .   S
    Zr25   O61       2.34857      .   S
    N59    O62       1.50325      .   S
    Zr14   O62       2.84697  1_665   S
    N59    O63       1.21885      .   S
    Zr16   O63       2.40864      .   S
    N59    O64       1.31468      .   S
    Zr4    O64       2.62434  1_655   S
    N59    O65       1.51614      .   S
    Zr10   O65       2.86439  1_565   S
    N59    O66       1.26128      .   S
    Zr0    O66       2.65743      .   S
    N59    O67       1.17033      .   S
    Zr25   O67       2.35304      .   S
    N59    O68       1.21490      .   S
    Zr16   O68       2.41491      .   S
    N59    O69       1.30413      .   S
    Zr0    O69       2.59283      .   S
    N70    O71       1.28796      .   S
    Zr5    O71       2.66590  1_655   S
    N70    O72       1.17235      .   S
    Zr24   O72       2.35130  1_554   S
    N70    O73       1.50292      .   S
    Zr15   O73       2.84735  1_665   S
    N70    O74       1.21839      .   S
    Zr17   O74       2.40822      .   S
    N70    O75       1.31463      .   S
    Zr5    O75       2.62475  1_655   S
    N70    O76       1.51639      .   S
    Zr11   O76       2.86458  1_565   S
    N70    O77       1.26169      .   S
    Zr1    O77       2.65782      .   S
    N70    O78       1.17099      .   S
    Zr24   O78       2.35386  1_554   S
    N70    O79       1.21448      .   S
    Zr17   O79       2.41446      .   S
    N70    O80       1.30424      .   S
    Zr1    O80       2.59346      .   S
    N81    O82       1.28834      .   S
    Zr6    O82       2.66558  1_655   S
    N81    O83       1.17340      .   S
    Zr27   O83       2.34857      .   S
    N81    O84       1.50330      .   S
    Zr12   O84       2.84718  1_655   S
    N81    O85       1.21885      .   S
    Zr18   O85       2.40864      .   S
    N81    O86       1.31467      .   S
    Zr6    O86       2.62457  1_655   S
    N81    O87       1.51619      .   S
    Zr8    O87       2.86459      .   S
    N81    O88       1.26129      .   S
    Zr2    O88       2.65744      .   S
    N81    O89       1.17033      .   S
    Zr27   O89       2.35304      .   S
    N81    O90       1.21490      .   S
    Zr18   O90       2.41491      .   S
    N81    O91       1.30414      .   S
    Zr2    O91       2.59285      .   S
    N92    O93       1.50297      .   S
    Zr13   O93       2.84755  1_655   S
    N92    O94       1.28797      .   S
    Zr7    O94       2.66590  1_655   S
    N92    O95       1.17235      .   S
    Zr26   O95       2.35129  1_554   S
    N92    O96       1.21839      .   S
    Zr19   O96       2.40821      .   S
    N92    O97       1.31463      .   S
    Zr7    O97       2.62475  1_655   S
    N92    O98       1.51644      .   S
    Zr9    O98       2.86477      .   S
    N92    O99       1.26169      .   S
    Zr3    O99       2.65781      .   S
    N92    O100      1.17099      .   S
    Zr26   O100      2.35386  1_554   S
    N92    O101      1.21448      .   S
    Zr19   O101      2.41446      .   S
    N92    O102      1.30424      .   S
    Zr3    O102      2.59346      .   S
    N103   O104      1.50324      .   S
    Zr10   O104      2.84694  1_565   S
    N103   O105      1.28825      .   S
    Zr0    O105      2.66543      .   S
    N103   O106      1.17340      .   S
    Zr29   O106      2.34857      .   S
    N103   O107      1.21885      .   S
    Zr20   O107      2.40864      .   S
    N103   O108      1.31466      .   S
    Zr0    O108      2.62430      .   S
    N103   O109      1.51614      .   S
    Zr14   O109      2.86440  1_565   S
    N103   O110      1.26129      .   S
    Zr4    O110      2.65744      .   S
    N103   O111      1.17033      .   S
    Zr29   O111      2.35304      .   S
    N103   O112      1.21490      .   S
    Zr20   O112      2.41491      .   S
    N103   O113      1.30414      .   S
    Zr4    O113      2.59284      .   S
    N114   O115      1.50290      .   S
    Zr11   O115      2.84730  1_565   S
    N114   O116      1.28795      .   S
    Zr1    O116      2.66585      .   S
    N114   O117      1.17235      .   S
    Zr28   O117      2.35130  1_554   S
    N114   O118      1.21840      .   S
    Zr21   O118      2.40821      .   S
    N114   O119      1.31461      .   S
    Zr1    O119      2.62470      .   S
    N114   O120      1.51639      .   S
    Zr15   O120      2.86457  1_565   S
    N114   O121      1.26169      .   S
    Zr5    O121      2.65781      .   S
    N114   O122      1.17099      .   S
    Zr28   O122      2.35386  1_554   S
    N114   O123      1.21448      .   S
    Zr21   O123      2.41447      .   S
    N114   O124      1.30423      .   S
    Zr5    O124      2.59345      .   S
    N125   O126      1.50329      .   S
    Zr8    O126      2.84713      .   S
    N125   O127      1.28825      .   S
    Zr2    O127      2.66542      .   S
    N125   O128      1.17340      .   S
    Zr31   O128      2.34857      .   S
    N125   O129      1.21885      .   S
    Zr22   O129      2.40864      .   S
    N125   O130      1.31466      .   S
    Zr2    O130      2.62429      .   S
    N125   O131      1.51619      .   S
    Zr12   O131      2.86460      .   S
    N125   O132      1.26140      .   S
    Zr6    O132      2.65764      .   S
    N125   O133      1.17033      .   S
    Zr31   O133      2.35304      .   S
    N125   O134      1.21490      .   S
    Zr22   O134      2.41491      .   S
    N125   O135      1.30416      .   S
    Zr6    O135      2.59317      .   S
    N136   O137      1.50295      .   S
    Zr9    O137      2.84751      .   S
    N136   O138      1.28795      .   S
    Zr3    O138      2.66585      .   S
    N136   O139      1.17235      .   S
    Zr30   O139      2.35129  1_554   S
    N136   O140      1.21839      .   S
    Zr23   O140      2.40821      .   S
    N136   O141      1.31461      .   S
    Zr3    O141      2.62470      .   S
    N136   O142      1.51644      .   S
    Zr13   O142      2.86477      .   S
    N136   O143      1.26169      .   S
    Zr7    O143      2.65782      .   S
    N136   O144      1.17099      .   S
    Zr30   O144      2.35386  1_554   S
    N136   O145      1.21448      .   S
    Zr23   O145      2.41446      .   S
    N136   O146      1.30423      .   S
    Zr7    O146      2.59346      .   S
    N147   O148      1.51465      .   S
    Zr4    O148      2.90316  1_655   S
    N147   O149      1.22047      .   S
    Zr12   O149      2.41539  1_655   S
    N147   O150      1.20883      .   S
    Zr0    O150      2.46192      .   S
    N147   O151      1.34468      .   S
    Zr25   O151      2.63489      .   S
    N147   O152      1.36697      .   S
    Zr17   O152      2.68115      .   S
    N147   O153      1.19706      .   S
    Zr12   O153      2.44816  1_655   S
    N147   O154      1.22308      .   S
    Zr0    O154      2.44307      .   S
    N147   O155      1.50045      .   S
    Zr8    O155      2.86057      .   S
    N156   O157      1.51447      .   S
    Zr5    O157      2.90274  1_655   S
    N156   O158      1.22049      .   S
    Zr13   O158      2.41541  1_655   S
    N156   O159      1.20865      .   S
    Zr1    O159      2.46158      .   S
    N156   O160      1.34470      .   S
    Zr24   O160      2.63504  1_554   S
    N156   O161      1.19710      .   S
    Zr13   O161      2.44818  1_655   S
    N156   O162      1.36712      .   S
    Zr16   O162      2.68148  1_554   S
    N156   O163      1.22301      .   S
    Zr1    O163      2.44257      .   S
    N156   O164      1.50044      .   S
    Zr9    O164      2.86064      .   S
    N165   O166      1.51455      .   S
    Zr6    O166      2.90284  1_655   S
    N165   O167      1.22045      .   S
    Zr14   O167      2.41534  1_655   S
    N165   O168      1.20890      .   S
    Zr2    O168      2.46197      .   S
    N165   O169      1.34472      .   S
    Zr27   O169      2.63486      .   S
    N165   O170      1.19700      .   S
    Zr14   O170      2.44814  1_655   S
    N165   O171      1.36687      .   S
    Zr19   O171      2.68106      .   S
    N165   O172      1.22312      .   S
    Zr2    O172      2.44313      .   S
    N165   O173      1.50043      .   S
    Zr10   O173      2.86050      .   S
    N174   O175      1.51464      .   S
    Zr7    O175      2.90255  1_655   S
    N174   O176      1.22044      .   S
    Zr15   O176      2.41554  1_655   S
    N174   O177      1.20865      .   S
    Zr3    O177      2.46159      .   S
    N174   O178      1.34470      .   S
    Zr26   O178      2.63505  1_554   S
    N174   O179      1.19711      .   S
    Zr15   O179      2.44816  1_655   S
    N174   O180      1.36715      .   S
    Zr18   O180      2.68142  1_554   S
    N174   O181      1.22296      .   S
    Zr3    O181      2.44266      .   S
    N174   O182      1.50047      .   S
    Zr11   O182      2.86058      .   S
    N183   O184      1.51464      .   S
    Zr0    O184      2.90323      .   S
    N183   O185      1.22043      .   S
    Zr8    O185      2.41531      .   S
    N183   O186      1.20889      .   S
    Zr4    O186      2.46196      .   S
    N183   O187      1.34471      .   S
    Zr29   O187      2.63487      .   S
    N183   O188      1.19700      .   S
    Zr8    O188      2.44809      .   S
    N183   O189      1.36687      .   S
    Zr21   O189      2.68106      .   S
    N183   O190      1.22311      .   S
    Zr4    O190      2.44313      .   S
    N183   O191      1.50042      .   S
    Zr12   O191      2.86051      .   S
    N192   O193      1.51462      .   S
    Zr20   O193      2.90292      .   S
    N192   O194      1.22040      .   S
    Zr28   O194      2.41520      .   S
    N192   O195      1.34475      .   S
    Zr9    O195      2.63498  1_556   S
    N192   O196      1.20883      .   S
    Zr16   O196      2.46176      .   S
    N192   O197      1.36679      .   S
    Zr1    O197      2.68108  1_556   S
    N192   O198      1.19689      .   S
    Zr28   O198      2.44803      .   S
    N192   O199      1.22308      .   S
    Zr16   O199      2.44285      .   S
    N192   O200      1.50036      .   S
    Zr24   O200      2.86040      .   S
    N201   O202      1.51458      .   S
    Zr21   O202      2.90287      .   S
    N201   O203      1.22042      .   S
    Zr29   O203      2.41524      .   S
    N201   O204      1.34470      .   S
    Zr8    O204      2.63486      .   S
    N201   O205      1.20875      .   S
    Zr17   O205      2.46174      .   S
    N201   O206      1.36704      .   S
    Zr0    O206      2.68158      .   S
    N201   O207      1.19694      .   S
    Zr29   O207      2.44805      .   S
    N201   O208      1.22305      .   S
    Zr17   O208      2.44280      .   S
    N201   O209      1.50037      .   S
    Zr25   O209      2.86044      .   S
    N210   O211      1.51471      .   S
    Zr22   O211      2.90308      .   S
    N210   O212      1.22038      .   S
    Zr30   O212      2.41510      .   S
    N210   O213      1.34480      .   S
    Zr11   O213      2.63493  1_556   S
    N210   O214      1.20897      .   S
    Zr18   O214      2.46185      .   S
    N210   O215      1.36659      .   S
    Zr3    O215      2.68088  1_556   S
    N210   O216      1.19678      .   S
    Zr30   O216      2.44798      .   S
    N210   O217      1.22315      .   S
    Zr18   O217      2.44298      .   S
    N210   O218      1.50029      .   S
    Zr26   O218      2.86027      .   S
    N219   O220      1.51455      .   S
    Zr23   O220      2.90284      .   S
    N219   O221      1.22042      .   S
    Zr31   O221      2.41526      .   S
    N219   O222      1.34471      .   S
    Zr10   O222      2.63488      .   S
    N219   O223      1.20877      .   S
    Zr19   O223      2.46168      .   S
    N219   O224      1.36710      .   S
    Zr2    O224      2.68164      .   S
    N219   O225      1.19698      .   S
    Zr31   O225      2.44806      .   S
    N219   O226      1.22303      .   S
    Zr19   O226      2.44277      .   S
    N219   O227      1.50040      .   S
    Zr27   O227      2.86047      .   S
    N228   O229      1.51459      .   S
    Zr16   O229      2.90288  1_455   S
    N228   O230      1.22045      .   S
    Zr24   O230      2.41528  1_455   S
    N228   O231      1.34473      .   S
    Zr13   O231      2.63500  1_556   S
    N228   O232      1.20876      .   S
    Zr20   O232      2.46171      .   S
    N228   O233      1.36692      .   S
    Zr5    O233      2.68121  1_556   S
    N228   O234      1.19698      .   S
    Zr24   O234      2.44810  1_455   S
    N228   O235      1.22304      .   S
    Zr20   O235      2.44279      .   S
    N228   O236      1.50041      .   S
    Zr28   O236      2.86046      .   S
    N237   O238      1.51459      .   S
    Zr17   O238      2.90288  1_455   S
    N237   O239      1.22045      .   S
    Zr25   O239      2.41529  1_455   S
    N237   O240      1.34471      .   S
    Zr12   O240      2.63486      .   S
    N237   O241      1.20876      .   S
    Zr21   O241      2.46171      .   S
    N237   O242      1.36708      .   S
    Zr4    O242      2.68163      .   S
    N237   O243      1.19698      .   S
    Zr25   O243      2.44811  1_455   S
    N237   O244      1.22304      .   S
    Zr21   O244      2.44279      .   S
    N237   O245      1.50040      .   S
    Zr29   O245      2.86046      .   S
    N246   O247      1.51459      .   S
    Zr18   O247      2.90287  1_455   S
    N246   O248      1.22045      .   S
    Zr26   O248      2.41530  1_455   S
    N246   O249      1.34473      .   S
    Zr15   O249      2.63500  1_556   S
    N246   O250      1.20876      .   S
    Zr22   O250      2.46170      .   S
    N246   O251      1.36692      .   S
    Zr7    O251      2.68121  1_556   S
    N246   O252      1.19698      .   S
    Zr26   O252      2.44812  1_455   S
    N246   O253      1.50040      .   S
    Zr30   O253      2.86047      .   S
    N246   O254      1.22304      .   S
    Zr22   O254      2.44278      .   S
    N255   O256      1.51460      .   S
    Zr19   O256      2.90287  1_455   S
    N255   O257      1.22045      .   S
    Zr27   O257      2.41526  1_455   S
    N255   O258      1.34471      .   S
    Zr14   O258      2.63488      .   S
    N255   O259      1.20879      .   S
    Zr23   O259      2.46169      .   S
    N255   O260      1.36683      .   S
    Zr6    O260      2.68092      .   S
    N255   O261      1.19696      .   S
    Zr27   O261      2.44810  1_455   S
    N255   O262      1.22304      .   S
    Zr23   O262      2.44279      .   S
    N255   O263      1.50039      .   S
    Zr31   O263      2.86046      .   S
    N264   O265      1.21870      .   S
    Zr0    O265      2.40824      .   S
    N264   O266      1.31465      .   S
    Zr20   O266      2.62447      .   S
    N264   O267      1.50327      .   S
    Zr30   O267      2.84711      .   S
    N264   O268      1.17343      .   S
    Zr9    O268      2.34868  1_556   S
    N264   O269      1.28830      .   S
    Zr20   O269      2.66549      .   S
    N264   O270      1.51617      .   S
    Zr26   O270      2.86455      .   S
    N264   O271      1.17037      .   S
    Zr9    O271      2.35313  1_556   S
    N264   O272      1.26138      .   S
    Zr16   O272      2.65760      .   S
    N264   O273      1.21477      .   S
    Zr0    O273      2.41449      .   S
    N264   O274      1.30416      .   S
    Zr16   O274      2.59311      .   S
    N275   O276      1.21889      .   S
    Zr1    O276      2.40875      .   S
    N275   O277      1.31465      .   S
    Zr21   O277      2.62446      .   S
    N275   O278      1.50327      .   S
    Zr31   O278      2.84712      .   S
    N275   O279      1.17334      .   S
    Zr8    O279      2.34841      .   S
    N275   O280      1.28830      .   S
    Zr21   O280      2.66549      .   S
    N275   O281      1.51617      .   S
    Zr27   O281      2.86456      .   S
    N275   O282      1.17027      .   S
    Zr8    O282      2.35288      .   S
    N275   O283      1.26137      .   S
    Zr17   O283      2.65759      .   S
    N275   O284      1.21494      .   S
    Zr1    O284      2.41502      .   S
    N275   O285      1.30415      .   S
    Zr17   O285      2.59310      .   S
    N286   O287      1.50323      .   S
    Zr28   O287      2.84692  1_545   S
    N286   O288      1.17343      .   S
    Zr11   O288      2.34869  1_556   S
    N286   O289      1.28831      .   S
    Zr22   O289      2.66550      .   S
    N286   O290      1.21870      .   S
    Zr2    O290      2.40824      .   S
    N286   O291      1.31465      .   S
    Zr22   O291      2.62448      .   S
    N286   O292      1.51612      .   S
    Zr24   O292      2.86436  1_545   S
    N286   O293      1.17037      .   S
    Zr11   O293      2.35314  1_556   S
    N286   O294      1.26138      .   S
    Zr18   O294      2.65760      .   S
    N286   O295      1.21477      .   S
    Zr2    O295      2.41449      .   S
    N286   O296      1.30416      .   S
    Zr18   O296      2.59311      .   S
    N297   O298      1.50322      .   S
    Zr29   O298      2.84691  1_545   S
    N297   O299      1.17334      .   S
    Zr10   O299      2.34841      .   S
    N297   O300      1.28830      .   S
    Zr23   O300      2.66550      .   S
    N297   O301      1.21889      .   S
    Zr3    O301      2.40875      .   S
    N297   O302      1.31465      .   S
    Zr23   O302      2.62447      .   S
    N297   O303      1.51612      .   S
    Zr25   O303      2.86436  1_545   S
    N297   O304      1.17027      .   S
    Zr10   O304      2.35288      .   S
    N297   O305      1.26138      .   S
    Zr19   O305      2.65761      .   S
    N297   O306      1.21494      .   S
    Zr3    O306      2.41502      .   S
    N297   O307      1.30416      .   S
    Zr19   O307      2.59312      .   S
    N308   O309      1.50329      .   S
    Zr26   O309      2.84716  1_455   S
    N308   O310      1.17343      .   S
    Zr13   O310      2.34868  1_556   S
    N308   O311      1.28833      .   S
    Zr16   O311      2.66555  1_455   S
    N308   O312      1.21870      .   S
    Zr4    O312      2.40824      .   S
    N308   O313      1.31467      .   S
    Zr16   O313      2.62452  1_455   S
    N308   O314      1.51617      .   S
    Zr30   O314      2.86455      .   S
    N308   O315      1.17037      .   S
    Zr13   O315      2.35313  1_556   S
    N308   O316      1.26138      .   S
    Zr20   O316      2.65761      .   S
    N308   O317      1.21477      .   S
    Zr4    O317      2.41449      .   S
    N308   O318      1.30416      .   S
    Zr20   O318      2.59311      .   S
    N319   O320      1.50328      .   S
    Zr27   O320      2.84715  1_455   S
    N319   O321      1.17334      .   S
    Zr12   O321      2.34841      .   S
    N319   O322      1.28832      .   S
    Zr17   O322      2.66555  1_455   S
    N319   O323      1.21889      .   S
    Zr5    O323      2.40875      .   S
    N319   O324      1.31467      .   S
    Zr17   O324      2.62452  1_455   S
    N319   O325      1.51617      .   S
    Zr31   O325      2.86456      .   S
    N319   O326      1.17027      .   S
    Zr12   O326      2.35289      .   S
    N319   O327      1.26137      .   S
    Zr21   O327      2.65761      .   S
    N319   O328      1.21494      .   S
    Zr5    O328      2.41502      .   S
    N319   O329      1.30416      .   S
    Zr21   O329      2.59311      .   S
    N330   O331      1.50324      .   S
    Zr24   O331      2.84696  1_445   S
    N330   O332      1.17343      .   S
    Zr15   O332      2.34869  1_556   S
    N330   O333      1.28832      .   S
    Zr18   O333      2.66554  1_455   S
    N330   O334      1.21888      .   S
    Zr6    O334      2.40874      .   S
    N330   O335      1.31467      .   S
    Zr18   O335      2.62452  1_455   S
    N330   O336      1.51612      .   S
    Zr28   O336      2.86436  1_545   S
    N330   O337      1.17037      .   S
    Zr15   O337      2.35314  1_556   S
    N330   O338      1.26138      .   S
    Zr22   O338      2.65760      .   S
    N330   O339      1.21493      .   S
    Zr6    O339      2.41501      .   S
    N330   O340      1.30416      .   S
    Zr22   O340      2.59310      .   S
    N341   O342      1.50324      .   S
    Zr25   O342      2.84695  1_445   S
    N341   O343      1.17334      .   S
    Zr14   O343      2.34841      .   S
    N341   O344      1.28832      .   S
    Zr19   O344      2.66554  1_455   S
    N341   O345      1.21889      .   S
    Zr7    O345      2.40875      .   S
    N341   O346      1.31467      .   S
    Zr19   O346      2.62451  1_455   S
    N341   O347      1.51611      .   S
    Zr29   O347      2.86436  1_545   S
    N341   O348      1.17027      .   S
    Zr14   O348      2.35288      .   S
    N341   O349      1.26137      .   S
    Zr23   O349      2.65761      .   S
    N341   O350      1.21494      .   S
    Zr7    O350      2.41502      .   S
    N341   O351      1.30416      .   S
    Zr23   O351      2.59311      .   S
