# CIF file generated by openbabel 2.4.90, see http://openbabel.sf.net
data_I
_chemical_name_common ''
_cell_length_a 14.637
_cell_length_b 15.146
_cell_length_c 16.082
_cell_angle_alpha 93.928
_cell_angle_beta 90.101
_cell_angle_gamma 89.975
_space_group_name_H-M_alt 'P 1'
_space_group_name_Hall 'P 1'
loop_
    _symmetry_equiv_pos_as_xyz
    x,y,z
loop_
    _atom_site_label
    _atom_site_type_symbol
    _atom_site_fract_x
    _atom_site_fract_y
    _atom_site_fract_z
    _atom_site_occupancy
    Lv0     Lv   0.09312   0.36600   0.07944   1.000
    Lv1     Lv   0.39265   0.88129   0.06381   1.000
    Lv2     Lv   0.00440   0.74760   0.73594   1.000
    Lv3     Lv   0.50086   0.74879   0.23484   1.000
    Lv4     Lv   0.91178   0.63194   0.92163   1.000
    Lv5     Lv   0.99591   0.24889   0.26261   1.000
    Lv6     Lv   0.10922   0.88178   0.56570   1.000
    Lv7     Lv   0.50094   0.24960   0.76350   1.000
    Lv8     Lv   0.89142   0.11566   0.43524   1.000
    Lv9     Lv   0.41015   0.36529   0.57777   1.000
    Lv10    Lv   0.61039   0.11655   0.93256   1.000
    Lv11    Lv   0.59062   0.63085   0.41932   1.000
