# CIF file generated by openbabel 2.4.90, see http://openbabel.sf.net
data_I
_chemical_name_common ''
_cell_length_a 14.637
_cell_length_b 15.146
_cell_length_c 16.082
_cell_angle_alpha 93.928
_cell_angle_beta 90.101
_cell_angle_gamma 89.975
_space_group_name_H-M_alt 'P 1'
_space_group_name_Hall 'P 1'
loop_
    _symmetry_equiv_pos_as_xyz
    x,y,z
loop_
    _atom_site_label
    _atom_site_type_symbol
    _atom_site_fract_x
    _atom_site_fract_y
    _atom_site_fract_z
    _atom_site_occupancy
    H0      H    0.73738   0.08772   0.87357   1.000
    H1      H    0.21326   0.37520   0.15240   1.000
    H2      H    0.75153   0.71442   0.13418   1.000
    H3      H    0.59612   0.65433   0.14560   1.000
    H4      H    0.52719   0.89122   0.29994   1.000
    H5      H    0.68433   0.94177   0.28129   1.000
    H6      H    0.32922   0.54164   0.22647   1.000
    H7      H    0.48351   0.59499   0.19725   1.000
    H8      H    0.39228   0.85847   0.28290   1.000
    H9      H    0.24368   0.79345   0.31357   1.000
    H10     H    0.23507   0.91267   0.62625   1.000
    H11     H    0.70970   0.61943   0.34459   1.000
    H12     H    0.24423   0.27786   0.37004   1.000
    H13     H    0.08938   0.33969   0.35705   1.000
    H14     H    0.02423   0.11152   0.18957   1.000
    H15     H    0.18070   0.05874   0.21015   1.000
    H16     H    0.82533   0.45706   0.26797   1.000
    H17     H    0.98064   0.40400   0.29547   1.000
    H18     H    0.88702   0.13910   0.21792   1.000
    H19     H    0.73698   0.20347   0.18940   1.000
    H20     H    0.26566   0.90942   0.12301   1.000
    H21     H    0.79138   0.62318   0.84809   1.000
    H22     H    0.24989   0.28411   0.86324   1.000
    H23     H    0.40467   0.34515   0.85045   1.000
    H24     H    0.47460   0.10727   0.69792   1.000
    H25     H    0.31802   0.05585   0.71772   1.000
    H26     H    0.67339   0.45644   0.77332   1.000
    H27     H    0.51816   0.40387   0.80012   1.000
    H28     H    0.60905   0.14008   0.71505   1.000
    H29     H    0.75874   0.20429   0.68714   1.000
    H30     H    0.76540   0.08559   0.37473   1.000
    H31     H    0.29111   0.37639   0.65257   1.000
    H32     H    0.75628   0.71801   0.62843   1.000
    H33     H    0.91106   0.65639   0.64199   1.000
    H34     H    0.97561   0.88518   0.80891   1.000
    H35     H    0.81929   0.93776   0.78772   1.000
    H36     H    0.17553   0.53983   0.72973   1.000
    H37     H    0.02006   0.59268   0.70265   1.000
    H38     H    0.11293   0.85739   0.78183   1.000
    H39     H    0.26322   0.79319   0.80972   1.000
    C40     C    0.51248   0.07187   0.92234   1.000
    C41     C    0.59563   0.04993   0.88320   1.000
    C42     C    0.67187   0.10256   0.90357   1.000
    C43     C    0.66590   0.17446   0.96306   1.000
    C44     C    0.58114   0.18972   0.00214   1.000
    C45     C    0.00191   0.42409   0.08073   1.000
    C46     C    0.08235   0.43424   0.12783   1.000
    C47     C    0.15081   0.37031   0.11527   1.000
    C48     C    0.14129   0.30026   0.05419   1.000
    C49     C    0.06218   0.29933   0.00466   1.000
    C50     C    0.69967   0.75082   0.17075   1.000
    C51     C    0.61195   0.71812   0.17749   1.000
    C52     C    0.54616   0.76713   0.22478   1.000
    C53     C    0.57336   0.84935   0.26193   1.000
    C54     C    0.66233   0.87833   0.25252   1.000
    C55     C    0.34560   0.61158   0.23690   1.000
    C56     C    0.43221   0.64257   0.22015   1.000
    C57     C    0.45296   0.73255   0.23720   1.000
    C58     C    0.38263   0.78775   0.26945   1.000
    C59     C    0.29791   0.75220   0.28570   1.000
    C60     C    0.01045   0.92474   0.57481   1.000
    C61     C    0.09279   0.94808   0.61507   1.000
    C62     C    0.17013   0.89683   0.59542   1.000
    C63     C    0.16595   0.82480   0.53597   1.000
    C64     C    0.08199   0.80812   0.49562   1.000
    C65     C    0.49912   0.57426   0.41951   1.000
    C66     C    0.57863   0.56245   0.37151   1.000
    C67     C    0.64817   0.62546   0.38270   1.000
    C68     C    0.64080   0.69612   0.44338   1.000
    C69     C    0.56289   0.69827   0.49428   1.000
    C70     C    0.19335   0.24378   0.33034   1.000
    C71     C    0.10611   0.27745   0.32268   1.000
    C72     C    0.04155   0.23095   0.27169   1.000
    C73     C    0.06949   0.15069   0.23108   1.000
    C74     C    0.15795   0.12059   0.24158   1.000
    C75     C    0.84131   0.38687   0.25911   1.000
    C76     C    0.92845   0.35622   0.27480   1.000
    C77     C    0.94844   0.26583   0.25959   1.000
    C78     C    0.87737   0.21003   0.22995   1.000
    C79     C    0.79212   0.24529   0.21491   1.000
    C80     C    0.49021   0.92653   0.07382   1.000
    C81     C    0.40700   0.94828   0.11292   1.000
    C82     C    0.33118   0.89502   0.09287   1.000
    C83     C    0.33754   0.82293   0.03361   1.000
    C84     C    0.42222   0.80809   0.99422   1.000
    C85     C    0.00211   0.57356   0.92072   1.000
    C86     C    0.92179   0.56353   0.87340   1.000
    C87     C    0.85361   0.62784   0.88554   1.000
    C88     C    0.86315   0.69799   0.94655   1.000
    C89     C    0.94193   0.69848   0.99656   1.000
    C90     C    0.30183   0.24766   0.82681   1.000
    C91     C    0.38923   0.28090   0.81933   1.000
    C92     C    0.45522   0.23173   0.77246   1.000
    C93     C    0.42833   0.14920   0.73577   1.000
    C94     C    0.33967   0.11968   0.74587   1.000
    C95     C    0.65668   0.38660   0.76251   1.000
    C96     C    0.56955   0.35607   0.77790   1.000
    C97     C    0.54855   0.26618   0.76054   1.000
    C98     C    0.61898   0.21069   0.72901   1.000
    C99     C    0.70427   0.24577   0.71425   1.000
    C100    C    0.98991   0.07212   0.42597   1.000
    C101    C    0.90737   0.04911   0.38601   1.000
    C102    C    0.83042   0.10096   0.40559   1.000
    C103    C    0.83510   0.17315   0.46495   1.000
    C104    C    0.91916   0.18911   0.50540   1.000
    C105    C    0.50132   0.42234   0.57724   1.000
    C106    C    0.42192   0.43386   0.62547   1.000
    C107    C    0.35266   0.37056   0.61446   1.000
    C108    C    0.36031   0.29975   0.55400   1.000
    C109    C    0.43811   0.29769   0.50299   1.000
    C110    C    0.80700   0.75230   0.66814   1.000
    C111    C    0.89424   0.71872   0.67613   1.000
    C112    C    0.95869   0.76547   0.72704   1.000
    C113    C    0.93057   0.84581   0.76737   1.000
    C114    C    0.84211   0.87582   0.75651   1.000
    C115    C    0.15932   0.60993   0.73902   1.000
    C116    C    0.07213   0.64049   0.72351   1.000
    C117    C    0.05187   0.73077   0.73923   1.000
    C118    C    0.12278   0.78655   0.76925   1.000
    C119    C    0.20817   0.75142   0.78401   1.000
    N120    N    0.50836   0.13958   0.98004   1.000
    N121    N    0.00000   0.35856   0.02098   1.000
    N122    N    0.72513   0.82993   0.20836   1.000
    N123    N    0.27950   0.66515   0.27033   1.000
    N124    N    0.00816   0.85720   0.51677   1.000
    N125    N    0.49504   0.63996   0.47927   1.000
    N126    N    0.21940   0.16617   0.29009   1.000
    N127    N    0.77412   0.33259   0.22881   1.000
    N128    N    0.49474   0.85876   0.01620   1.000
    N129    N    0.00847   0.63898   0.98058   1.000
    N130    N    0.27690   0.16788   0.79029   1.000
    N131    N    0.72309   0.33264   0.73030   1.000
    N132    N    0.99259   0.13956   0.48401   1.000
    N133    N    0.50561   0.35646   0.51767   1.000
    N134    N    0.78081   0.83008   0.70798   1.000
    N135    N    0.22640   0.66423   0.76957   1.000
loop_
    _geom_bond_atom_site_label_1
    _geom_bond_atom_site_label_2
    _geom_bond_distance
    _geom_bond_site_symmetry_2
    _ccdc_geom_bond_type
    C44    C43       1.40359  1_554   S
    C44    N120      1.34165  1_554   S
    C49    N121      1.29230      .   S
    C49    C48       1.40370      .   S
    N128   C80       1.33659      .   S
    N128   C84       1.34275  1_554   S
    N121   C45       1.33350      .   S
    C83    C82       1.40253      .   S
    C83    C84       1.40387  1_554   S
    C48    C47       1.40245      .   S
    C80    C81       1.40054      .   S
    C45    C46       1.40177      .   S
    C82    C81       1.39638      .   S
    C82    H20       1.09047      .   S
    C47    C46       1.39847      .   S
    C47    H1        1.09071      .   S
    H2     C50       1.08759      .   S
    H3     C51       1.08721      .   S
    C50    C51       1.38348      .   S
    C50    N122      1.35668      .   S
    C51    C52       1.40755      .   S
    H19    C79       1.08832      .   S
    H14    C73       1.08669      .   S
    H7     C56       1.08752      .   S
    N122   C54       1.34799      .   S
    H15    C74       1.08590      .   S
    C79    N127      1.35169      .   S
    C79    C78       1.38443      .   S
    H18    C78       1.08774      .   S
    C56    C55       1.38526      .   S
    C56    C57       1.40496      .   S
    C52    C57       1.48020      .   S
    C52    C53       1.40142      .   S
    H6     C55       1.08784      .   S
    N127   C75       1.35093      .   S
    C78    C77       1.40258      .   S
    C73    C74       1.38652      .   S
    C73    C72       1.40108      .   S
    C55    N123      1.35084      .   S
    C57    C58       1.40332      .   S
    C74    N126      1.34853      .   S
    C54    C53       1.38630      .   S
    C54    H5        1.08618      .   S
    C75    H16       1.08826      .   S
    C75    C76       1.38575      .   S
    C77    C72       1.47874  1_655   S
    C77    C76       1.40491      .   S
    C53    H4        1.08649      .   S
    C58    H8        1.08737      .   S
    C58    C59       1.38459      .   S
    N123   C59       1.35189      .   S
    C72    C71       1.40718      .   S
    C76    H17       1.08826      .   S
    C59    H9        1.08796      .   S
    N126   C70       1.35729      .   S
    C71    C70       1.38323      .   S
    C71    H13       1.08760      .   S
    C70    H12       1.08724      .   S
    H11    C67       1.09060      .   S
    C66    C67       1.39856      .   S
    C66    C65       1.40228      .   S
    H30    C102      1.09044      .   S
    C67    C68       1.40221      .   S
    C101   C102      1.39681      .   S
    C101   C100      1.40029      .   S
    C102   C103      1.40295      .   S
    C65    N125      1.33662      .   S
    C100   N132      1.33618      .   S
    C68    C69       1.40391      .   S
    C103   C104      1.40413      .   S
    N125   C69       1.33999      .   S
    N132   C104      1.34239      .   S
    C64    N124      1.34244      .   S
    C64    C63       1.40365      .   S
    C109   N133      1.33984      .   S
    C109   C108      1.40364      .   S
    N124   C60       1.33717      .   S
    N133   C105      1.33668      .   S
    C63    C62       1.40182      .   S
    C108   C107      1.40205      .   S
    C60    C61       1.40106      .   S
    C105   C106      1.40241      .   S
    C62    C61       1.39669      .   S
    C62    H10       1.09040      .   S
    C107   C106      1.39832      .   S
    C107   H31       1.09058      .   S
    H32    C110      1.08719      .   S
    H33    C111      1.08756      .   S
    C110   C111      1.38328      .   S
    C110   N134      1.35728      .   S
    C111   C112      1.40722      .   S
    H29    C99       1.08796      .   S
    H24    C93       1.08648      .   S
    H37    C116      1.08809      .   S
    N134   C114      1.34845      .   S
    C99    C98       1.38425      .   S
    C99    N131      1.35172      .   S
    H28    C98       1.08733      .   S
    H25    C94       1.08613      .   S
    C116   C115      1.38544      .   S
    C116   C117      1.40501      .   S
    C112   C117      1.47891  1_655   S
    C112   C113      1.40107      .   S
    C98    C97       1.40315      .   S
    H36    C115      1.08817      .   S
    N131   C95       1.35067      .   S
    C93    C94       1.38622      .   S
    C93    C92       1.40150      .   S
    C115   N135      1.35107      .   S
    C117   C118      1.40261      .   S
    C94    N130      1.34815      .   S
    C114   C113      1.38672      .   S
    C114   H35       1.08587      .   S
    C97    C92       1.47999      .   S
    C97    C96       1.40504      .   S
    C95    H26       1.08794      .   S
    C95    C96       1.38524      .   S
    C113   H34       1.08661      .   S
    C118   H38       1.08772      .   S
    C118   C119      1.38458      .   S
    N135   C119      1.35165      .   S
    C92    C91       1.40740      .   S
    C96    H27       1.08748      .   S
    C119   H39       1.08812      .   S
    N130   C90       1.35674      .   S
    C91    C90       1.38333      .   S
    C91    H23       1.08708      .   S
    C90    H22       1.08764      .   S
    H21    C87       1.09071      .   S
    C86    C87       1.39874      .   S
    C86    C85       1.40195  1_655   S
    H0     C42       1.09051      .   S
    C41    C42       1.39702      .   S
    C41    C40       1.40064      .   S
    C87    C88       1.40284      .   S
    C42    C43       1.40227      .   S
    C85    N129      1.33642      .   S
    C40    N120      1.33651      .   S
    C88    C89       1.40442      .   S
    N129   C89       1.33984  1_455   S
