# CIF file generated by openbabel 2.4.90, see http://openbabel.sf.net
data_I
_chemical_name_common ''
_cell_length_a 14.637
_cell_length_b 15.146
_cell_length_c 16.082
_cell_angle_alpha 93.928
_cell_angle_beta 90.101
_cell_angle_gamma 89.975
_space_group_name_H-M_alt 'P 1'
_space_group_name_Hall 'P 1'
loop_
    _symmetry_equiv_pos_as_xyz
    x,y,z
loop_
    _atom_site_label
    _atom_site_type_symbol
    _atom_site_fract_x
    _atom_site_fract_y
    _atom_site_fract_z
    _atom_site_occupancy
    Zn0     Zn   0.15592   0.62159   0.30208   1.000
    Zn1     Zn   0.12897   0.64142   0.04496   1.000
    Zn2     Zn   0.65278   0.87366   0.69137   1.000
    Zn3     Zn   0.88269   0.84015   0.45931   1.000
    Zn4     Zn   0.64896   0.37453   0.19814   1.000
    Zn5     Zn   0.62488   0.35170   0.45187   1.000
    Zn6     Zn   0.14840   0.12566   0.80512   1.000
    Zn7     Zn   0.62159   0.84405   0.96141   1.000
    Zn8     Zn   0.84803   0.37478   0.70119   1.000
    Zn9     Zn   0.87476   0.35536   0.95743   1.000
    Zn10    Zn   0.34755   0.12291   0.30543   1.000
    Zn11    Zn   0.11797   0.15619   0.54101   1.000
    Zn12    Zn   0.35162   0.62216   0.79881   1.000
    Zn13    Zn   0.37550   0.64492   0.54490   1.000
    Zn14    Zn   0.85505   0.87034   0.19719   1.000
    H15     H    0.73738   0.08772   0.87357   1.000
    H16     H    0.21326   0.37520   0.15240   1.000
    H17     H    0.75153   0.71442   0.13418   1.000
    H18     H    0.59612   0.65433   0.14560   1.000
    H19     H    0.52719   0.89122   0.29994   1.000
    H20     H    0.68433   0.94177   0.28129   1.000
    H21     H    0.32922   0.54164   0.22647   1.000
    H22     H    0.48351   0.59499   0.19725   1.000
    H23     H    0.39228   0.85847   0.28290   1.000
    H24     H    0.24368   0.79345   0.31357   1.000
    H25     H    0.23507   0.91267   0.62625   1.000
    H26     H    0.70970   0.61943   0.34459   1.000
    H27     H    0.24423   0.27786   0.37004   1.000
    H28     H    0.08938   0.33969   0.35705   1.000
    H29     H    0.02423   0.11152   0.18957   1.000
    H30     H    0.18070   0.05874   0.21015   1.000
    H31     H    0.82533   0.45706   0.26797   1.000
    Zn32    Zn   0.38223   0.15543   0.03555   1.000
    H33     H    0.98064   0.40400   0.29547   1.000
    H34     H    0.88702   0.13910   0.21792   1.000
    H35     H    0.73698   0.20347   0.18940   1.000
    H36     H    0.26566   0.90942   0.12301   1.000
    H37     H    0.79138   0.62318   0.84809   1.000
    H38     H    0.24989   0.28411   0.86324   1.000
    H39     H    0.40467   0.34515   0.85045   1.000
    H40     H    0.47460   0.10727   0.69792   1.000
    H41     H    0.31802   0.05585   0.71772   1.000
    H42     H    0.67339   0.45644   0.77332   1.000
    H43     H    0.51816   0.40387   0.80012   1.000
    H44     H    0.60905   0.14008   0.71505   1.000
    H45     H    0.75874   0.20429   0.68714   1.000
    H46     H    0.76540   0.08559   0.37473   1.000
    H47     H    0.29111   0.37639   0.65257   1.000
    H48     H    0.75628   0.71801   0.62843   1.000
    H49     H    0.91106   0.65639   0.64199   1.000
    H50     H    0.97561   0.88518   0.80891   1.000
    H51     H    0.81929   0.93776   0.78772   1.000
    H52     H    0.17553   0.53983   0.72973   1.000
    H53     H    0.02006   0.59268   0.70265   1.000
    H54     H    0.11293   0.85739   0.78183   1.000
    H55     H    0.26322   0.79319   0.80972   1.000
    C56     C    0.42270   0.02380   0.90343   1.000
    C57     C    0.51248   0.07187   0.92234   1.000
    C58     C    0.59563   0.04993   0.88320   1.000
    C59     C    0.60669   0.97212   0.82155   1.000
    C60     C    0.67187   0.10256   0.90357   1.000
    C61     C    0.66590   0.17446   0.96306   1.000
    C62     C    0.75074   0.22993   0.98053   1.000
    C63     C    0.58114   0.18972   0.00214   1.000
    C64     C    0.56172   0.25753   0.07327   1.000
    C65     C    0.91698   0.48165   0.09346   1.000
    C66     C    0.00191   0.42409   0.08073   1.000
    C67     C    0.08235   0.43424   0.12783   1.000
    C68     C    0.10010   0.51245   0.18735   1.000
    C69     C    0.15081   0.37031   0.11527   1.000
    C70     C    0.14129   0.30026   0.05419   1.000
    C71     C    0.21257   0.22756   0.04955   1.000
    C72     C    0.06218   0.29933   0.00466   1.000
    C73     C    0.04498   0.23953   0.92696   1.000
    C74     C    0.69967   0.75082   0.17075   1.000
    C75     C    0.61195   0.71812   0.17749   1.000
    C76     C    0.54616   0.76713   0.22478   1.000
    C77     C    0.57336   0.84935   0.26193   1.000
    C78     C    0.66233   0.87833   0.25252   1.000
    C79     C    0.34560   0.61158   0.23690   1.000
    C80     C    0.43221   0.64257   0.22015   1.000
    C81     C    0.45296   0.73255   0.23720   1.000
    C82     C    0.38263   0.78775   0.26945   1.000
    C83     C    0.29791   0.75220   0.28570   1.000
    C84     C    0.91953   0.97075   0.59339   1.000
    C85     C    0.01045   0.92474   0.57481   1.000
    C86     C    0.09279   0.94808   0.61507   1.000
    C87     C    0.10240   0.02522   0.67774   1.000
    C88     C    0.17013   0.89683   0.59542   1.000
    C89     C    0.16595   0.82480   0.53597   1.000
    C90     C    0.25184   0.77058   0.52026   1.000
    C91     C    0.08199   0.80812   0.49562   1.000
    C92     C    0.06446   0.73947   0.42452   1.000
    C93     C    0.41231   0.51927   0.40705   1.000
    C94     C    0.49912   0.57426   0.41951   1.000
    C95     C    0.57863   0.56245   0.37151   1.000
    C96     C    0.59441   0.48419   0.31167   1.000
    C97     C    0.64817   0.62546   0.38270   1.000
    C98     C    0.64080   0.69612   0.44338   1.000
    C99     C    0.71272   0.76818   0.44580   1.000
    O100    O    0.11663   0.19424   0.90342   1.000
    O101    O    0.91859   0.03089   0.65023   1.000
    O102    O    0.85173   0.94132   0.54833   1.000
    O103    O    0.11651   0.10342   0.65650   1.000
    C104    C    0.56289   0.69827   0.49428   1.000
    C105    C    0.54827   0.75878   0.57193   1.000
    C106    C    0.19335   0.24378   0.33034   1.000
    C107    C    0.10611   0.27745   0.32268   1.000
    C108    C    0.04155   0.23095   0.27169   1.000
    C109    C    0.06949   0.15069   0.23108   1.000
    C110    C    0.15795   0.12059   0.24158   1.000
    C111    C    0.84131   0.38687   0.25911   1.000
    C112    C    0.92845   0.35622   0.27480   1.000
    C113    C    0.94844   0.26583   0.25959   1.000
    C114    C    0.87737   0.21003   0.22995   1.000
    C115    C    0.79212   0.24529   0.21491   1.000
    C116    C    0.57958   0.97506   0.09316   1.000
    C117    C    0.49021   0.92653   0.07382   1.000
    C118    C    0.40700   0.94828   0.11292   1.000
    C119    C    0.39561   0.02607   0.17459   1.000
    C120    C    0.33118   0.89502   0.09287   1.000
    C121    C    0.33754   0.82293   0.03361   1.000
    C122    C    0.25272   0.76713   0.01718   1.000
    C123    C    0.42222   0.80809   0.99422   1.000
    C124    C    0.44201   0.74031   0.92298   1.000
    C125    C    0.08695   0.51593   0.90798   1.000
    C126    C    0.00211   0.57356   0.92072   1.000
    C127    C    0.92179   0.56353   0.87340   1.000
    C128    C    0.90400   0.48509   0.81417   1.000
    C129    C    0.85361   0.62784   0.88554   1.000
    C130    C    0.86315   0.69799   0.94655   1.000
    C131    C    0.79267   0.77155   0.95021   1.000
    C132    C    0.94193   0.69848   0.99656   1.000
    C133    C    0.95870   0.75782   0.07465   1.000
    C134    C    0.30183   0.24766   0.82681   1.000
    C135    C    0.38923   0.28090   0.81933   1.000
    C136    C    0.45522   0.23173   0.77246   1.000
    C137    C    0.42833   0.14920   0.73577   1.000
    C138    C    0.33967   0.11968   0.74587   1.000
    C139    C    0.65668   0.38660   0.76251   1.000
    C140    C    0.56955   0.35607   0.77790   1.000
    C141    C    0.54855   0.26618   0.76054   1.000
    C142    C    0.61898   0.21069   0.72901   1.000
    C143    C    0.70427   0.24577   0.71425   1.000
    C144    C    0.08069   0.02607   0.40673   1.000
    C145    C    0.98991   0.07212   0.42597   1.000
    C146    C    0.90737   0.04911   0.38601   1.000
    C147    C    0.89842   0.97218   0.32314   1.000
    C148    C    0.83042   0.10096   0.40559   1.000
    C149    C    0.83510   0.17315   0.46495   1.000
    C150    C    0.74951   0.22818   0.47989   1.000
    C151    C    0.91916   0.18911   0.50540   1.000
    C152    C    0.93781   0.25724   0.57678   1.000
    C153    C    0.58772   0.47805   0.58910   1.000
    C154    C    0.50132   0.42234   0.57724   1.000
    C155    C    0.42192   0.43386   0.62547   1.000
    C156    C    0.40586   0.51216   0.68517   1.000
    C157    C    0.35266   0.37056   0.61446   1.000
    C158    C    0.36031   0.29975   0.55400   1.000
    C159    C    0.28884   0.22739   0.55210   1.000
    C160    C    0.43811   0.29769   0.50299   1.000
    C161    C    0.45295   0.23700   0.42546   1.000
    C162    C    0.80700   0.75230   0.66814   1.000
    C163    C    0.89424   0.71872   0.67613   1.000
    C164    C    0.95869   0.76547   0.72704   1.000
    C165    C    0.93057   0.84581   0.76737   1.000
    C166    C    0.84211   0.87582   0.75651   1.000
    C167    C    0.15932   0.60993   0.73902   1.000
    C168    C    0.07213   0.64049   0.72351   1.000
    C169    C    0.05187   0.73077   0.73923   1.000
    C170    C    0.12278   0.78655   0.76925   1.000
    C171    C    0.20817   0.75142   0.78401   1.000
    N172    N    0.50836   0.13958   0.98004   1.000
    N173    N    0.00000   0.35856   0.02098   1.000
    N174    N    0.72513   0.82993   0.20836   1.000
    N175    N    0.27950   0.66515   0.27033   1.000
    N176    N    0.00816   0.85720   0.51677   1.000
    N177    N    0.49504   0.63996   0.47927   1.000
    N178    N    0.21940   0.16617   0.29009   1.000
    N179    N    0.77412   0.33259   0.22881   1.000
    N180    N    0.49474   0.85876   0.01620   1.000
    N181    N    0.00847   0.63898   0.98058   1.000
    N182    N    0.27690   0.16788   0.79029   1.000
    N183    N    0.72309   0.33264   0.73030   1.000
    N184    N    0.99259   0.13956   0.48401   1.000
    N185    N    0.50561   0.35646   0.51767   1.000
    N186    N    0.78081   0.83008   0.70798   1.000
    N187    N    0.22640   0.66423   0.76957   1.000
    O188    O    0.42319   0.96319   0.84701   1.000
    O189    O    0.35421   0.05208   0.94797   1.000
    O190    O    0.62153   0.89477   0.84408   1.000
    O191    O    0.61311   0.98803   0.74401   1.000
    O192    O    0.80798   0.20749   0.03181   1.000
    O193    O    0.75769   0.29587   0.93352   1.000
    O194    O    0.63266   0.30387   0.09704   1.000
    O195    O    0.48396   0.26273   0.10397   1.000
    O196    O    0.85121   0.46312   0.04176   1.000
    O197    O    0.91797   0.53935   0.15248   1.000
    O198    O    0.10925   0.50060   0.26528   1.000
    O199    O    0.11750   0.58832   0.16158   1.000
    O200    O    0.19092   0.15406   0.07265   1.000
    O201    O    0.29323   0.25178   0.02696   1.000
    O202    O    0.96967   0.24099   0.89164   1.000
    O203    O    0.10925   0.00884   0.75497   1.000
    O204    O    0.30852   0.79223   0.46837   1.000
    O205    O    0.25996   0.70657   0.56945   1.000
    O206    O    0.13602   0.69318   0.40251   1.000
    O207    O    0.98722   0.73365   0.39254   1.000
    O208    O    0.34767   0.53920   0.45939   1.000
    O209    O    0.41064   0.46251   0.34727   1.000
    O210    O    0.60478   0.49660   0.23402   1.000
    O211    O    0.60925   0.40728   0.33651   1.000
    O212    O    0.69124   0.84097   0.42088   1.000
    O213    O    0.79352   0.74411   0.46851   1.000
    O214    O    0.47411   0.75792   0.60909   1.000
    O215    O    0.62066   0.80409   0.59346   1.000
    O216    O    0.57832   0.03521   0.15001   1.000
    O217    O    0.64844   0.94779   0.04858   1.000
    O218    O    0.38222   0.10377   0.15251   1.000
    O219    O    0.38738   0.00946   0.25188   1.000
    O220    O    0.19554   0.78844   0.96539   1.000
    O221    O    0.24576   0.70269   0.06597   1.000
    O222    O    0.37152   0.69305   0.89950   1.000
    O223    O    0.51977   0.73619   0.89224   1.000
    O224    O    0.15239   0.53359   0.96025   1.000
    O225    O    0.08615   0.45898   0.84829   1.000
    O226    O    0.89458   0.49640   0.73616   1.000
    O227    O    0.88671   0.40929   0.84029   1.000
    O228    O    0.81612   0.84460   0.92729   1.000
    O229    O    0.71117   0.74837   0.97162   1.000
    O230    O    0.03358   0.75562   0.11070   1.000
    O231    O    0.88716   0.80348   0.09781   1.000
    O232    O    0.08130   0.96648   0.34935   1.000
    O233    O    0.14862   0.05499   0.45178   1.000
    O234    O    0.88619   0.89331   0.34372   1.000
    O235    O    0.89087   0.98887   0.24614   1.000
    O236    O    0.69213   0.20742   0.53156   1.000
    O237    O    0.74214   0.29171   0.43007   1.000
    O238    O    0.86674   0.30334   0.60032   1.000
    O239    O    0.01562   0.26272   0.60768   1.000
    O240    O    0.65167   0.45934   0.53577   1.000
    O241    O    0.58946   0.53435   0.64928   1.000
    O242    O    0.39555   0.49993   0.76288   1.000
    O243    O    0.39068   0.58889   0.66010   1.000
    O244    O    0.31147   0.15437   0.57574   1.000
    O245    O    0.20744   0.25171   0.53129   1.000
    O246    O    0.52742   0.23752   0.38873   1.000
    O247    O    0.38049   0.19208   0.40345   1.000
loop_
    _geom_bond_atom_site_label_1
    _geom_bond_atom_site_label_2
    _geom_bond_distance
    _geom_bond_site_symmetry_2
    _ccdc_geom_bond_type
    C63    C64       1.51136      .   S
    C63    C61       1.40359  1_554   S
    C63    N172      1.34165  1_554   S
    C72    N173      1.29230      .   S
    C72    C70       1.40370      .   S
    C72    C73       1.51307  1_554   S
    N180   C117      1.33659      .   S
    N180   Zn7       2.06202  1_554   S
    N180   C123      1.34275  1_554   S
    C122   C121      1.51481      .   S
    C122   O221      1.29772      .   S
    C122   O220      1.23790  1_554   S
    N173   C66       1.33350      .   S
    N173   Zn9       2.09615  1_454   S
    O201   Zn32      1.96743      .   S
    O201   C71       1.29639      .   S
    O192   C62       1.23818  1_554   S
    C121   C120      1.40253      .   S
    C121   C123      1.40387  1_554   S
    Zn32   O218      2.08611      .   S
    Zn32   O189      2.07343  1_554   S
    Zn32   N172      2.05885  1_554   S
    O196   C65       1.28933      .   S
    O196   Zn9       2.07835  1_554   S
    Zn1    O221      1.96304      .   S
    Zn1    O199      2.09768      .   S
    Zn1    O224      2.08265  1_554   S
    Zn1    N181      2.04286  1_554   S
    O217   C116      1.28918      .   S
    O217   Zn7       2.07015  1_554   S
    C71    C70       1.51476      .   S
    C71    O200      1.23901      .   S
    C70    C69       1.40245      .   S
    C64    O194      1.29590      .   S
    C64    O195      1.24174      .   S
    C117   C116      1.52187      .   S
    C117   C118      1.40054      .   S
    C133   O231      1.29572      .   S
    C133   O230      1.24044  1_655   S
    C133   C132      1.51319  1_554   S
    C66    C65       1.52399  1_455   S
    C66    C67       1.40177      .   S
    C120   C118      1.39638      .   S
    C120   H36       1.09047      .   S
    C116   O216      1.24582  1_565   S
    C65    O197      1.24553      .   S
    O194   Zn4       1.89906      .   S
    O231   Zn14      1.89247      .   S
    C118   C119      1.49655  1_565   S
    C69    C67       1.39847      .   S
    C69    H16       1.09071      .   S
    C67    C68       1.49352      .   S
    H17    C74       1.08759      .   S
    H18    C75       1.08721      .   S
    O218   C119      1.26744      .   S
    O199   C68       1.27403      .   S
    C74    C75       1.38348      .   S
    C74    N174      1.35668      .   S
    C119   O219      1.29076      .   S
    C75    C76       1.40755      .   S
    C68    O198      1.28500      .   S
    H35    C115      1.08832      .   S
    H29    C109      1.08669      .   S
    Zn14   N174      2.01014      .   S
    Zn14   O235      1.98071      .   S
    H22    C80       1.08752      .   S
    Zn4    N179      2.01034      .   S
    Zn4    O210      2.00595      .   S
    N174   C78       1.34799      .   S
    H30    C110      1.08590      .   S
    C115   N179      1.35169      .   S
    C115   C114      1.38443      .   S
    H34    C114      1.08774      .   S
    C80    C79       1.38526      .   S
    C80    C81       1.40496      .   S
    C76    C81       1.48020      .   S
    C76    C77       1.40142      .   S
    H21    C79       1.08784      .   S
    N179   C111      1.35093      .   S
    C114   C113      1.40258      .   S
    C109   C110      1.38652      .   S
    C109   C108      1.40108      .   S
    O210   C96       1.28487      .   S
    C79    N175      1.35084      .   S
    C81    C82       1.40332      .   S
    C110   N178      1.34853      .   S
    O235   C147      1.28536      .   S
    O219   Zn10      1.95764      .   S
    C78    C77       1.38630      .   S
    C78    H20       1.08618      .   S
    C111   H31       1.08826      .   S
    C111   C112      1.38575      .   S
    C113   C108      1.47874  1_655   S
    C113   C112      1.40491      .   S
    C77    H19       1.08649      .   S
    O198   Zn0       2.00653      .   S
    C82    H23       1.08737      .   S
    C82    C83       1.38459      .   S
    N175   C83       1.35189      .   S
    N175   Zn0       2.00466      .   S
    C108   C107      1.40718      .   S
    C112   H33       1.08826      .   S
    C83    H24       1.08796      .   S
    N178   Zn10      2.00699      .   S
    N178   C106      1.35729      .   S
    Zn0    O206      1.90539      .   S
    Zn10   O247      1.89373      .   S
    C96    O211      1.27553      .   S
    C96    C95       1.49279      .   S
    C107   C106      1.38323      .   S
    C107   H28       1.08760      .   S
    C147   O234      1.27407      .   S
    C147   C146      1.49520  1_565   S
    C106   H27       1.08724      .   S
    O211   Zn5       2.10128      .   S
    O234   Zn3       2.07644      .   S
    H26    C97       1.09060      .   S
    O209   C93       1.24525      .   S
    O232   C144      1.24583  1_565   S
    C95    C97       1.39856      .   S
    C95    C94       1.40228      .   S
    H46    C148      1.09044      .   S
    C97    C98       1.40221      .   S
    C146   C148      1.39681      .   S
    C146   C145      1.40029      .   S
    O246   C161      1.24098      .   S
    O207   C92       1.24188  1_655   S
    O206   C92       1.29637      .   S
    O247   C161      1.29590      .   S
    C148   C149      1.40295      .   S
    C144   C145      1.52271  1_455   S
    C144   O233      1.28838      .   S
    C93    C94       1.52495      .   S
    C93    O208      1.28938      .   S
    C94    N177      1.33662      .   S
    O212   C99       1.23888      .   S
    C92    C91       1.51357      .   S
    C161   C160      1.51354      .   S
    C145   N184      1.33618      .   S
    O237   Zn5       1.96243      .   S
    O237   C150      1.29802      .   S
    C98    C99       1.51529      .   S
    C98    C104      1.40391      .   S
    C99    O213      1.29667      .   S
    O233   Zn11      2.07600      .   S
    Zn5    N185      2.04177      .   S
    Zn5    O240      2.08071      .   S
    Zn3    O213      1.96803      .   S
    Zn3    N176      2.06271  1_655   S
    Zn3    O102      2.07465      .   S
    O208   Zn13      2.07797      .   S
    C149   C150      1.51475      .   S
    C149   C151      1.40413      .   S
    O204   C90       1.23791      .   S
    N177   C104      1.33999      .   S
    N177   Zn13      2.04367      .   S
    C150   O236      1.23817      .   S
    N184   C151      1.34239      .   S
    N184   Zn11      2.05777  1_655   S
    C104   C105      1.51303      .   S
    C91    N176      1.34244      .   S
    C91    C89       1.40365      .   S
    C160   N185      1.33984      .   S
    C160   C158      1.40364      .   S
    C151   C152      1.51456      .   S
    N176   C85       1.33717      .   S
    N185   C154      1.33668      .   S
    C90    C89       1.51350      .   S
    C90    O205      1.29778      .   S
    O245   Zn11      1.96618      .   S
    O245   C159      1.29714      .   S
    O240   C153      1.28902      .   S
    C89    C88       1.40182      .   S
    Zn11   O103      2.07183      .   S
    Zn13   O205      1.95909      .   S
    Zn13   O243      2.10129      .   S
    O102   C84       1.28926      .   S
    C159   C158      1.51417      .   S
    C159   O244      1.23866      .   S
    C158   C157      1.40205      .   S
    C105   O215      1.29632      .   S
    C105   O214      1.24052      .   S
    C85    C84       1.52246  1_455   S
    C85    C86       1.40106      .   S
    C152   O238      1.29512      .   S
    C152   O239      1.24236  1_655   S
    C154   C153      1.52506      .   S
    C154   C155      1.40241      .   S
    C153   O241      1.24543      .   S
    C84    O101      1.24568  1_565   S
    O215   Zn2       1.89250      .   S
    C88    C86       1.39669      .   S
    C88    H25       1.09040      .   S
    O238   Zn8       1.90729      .   S
    C157   C155      1.39832      .   S
    C157   H47       1.09058      .   S
    C86    C87       1.49624  1_565   S
    C155   C156      1.49280      .   S
    H48    C162      1.08719      .   S
    H49    C163      1.08756      .   S
    O103   C87       1.27209      .   S
    O243   C156      1.27522      .   S
    C162   C163      1.38328      .   S
    C162   N186      1.35728      .   S
    C163   C164      1.40722      .   S
    C87    O203      1.28681      .   S
    C156   O242      1.28509      .   S
    H45    C143      1.08796      .   S
    Zn2    N186      2.01005      .   S
    Zn2    O191      1.96317      .   S
    H40    C137      1.08648      .   S
    Zn8    N183      2.00384      .   S
    Zn8    O226      2.00798      .   S
    H53    C168      1.08809      .   S
    N186   C166      1.34845      .   S
    C143   C142      1.38425      .   S
    C143   N183      1.35172      .   S
    H44    C142      1.08733      .   S
    H41    C138      1.08613      .   S
    C168   C167      1.38544      .   S
    C168   C169      1.40501      .   S
    C164   C169      1.47891  1_655   S
    C164   C165      1.40107      .   S
    C142   C141      1.40315      .   S
    H52    C167      1.08817      .   S
    N183   C139      1.35067      .   S
    C137   C138      1.38622      .   S
    C137   C136      1.40150      .   S
    O226   C128      1.28483      .   S
    C167   N187      1.35107      .   S
    C169   C170      1.40261      .   S
    O191   C59       1.28979      .   S
    C138   N182      1.34815      .   S
    O203   Zn6       1.97812      .   S
    C166   C165      1.38672      .   S
    C166   H51       1.08587      .   S
    C141   C136      1.47999      .   S
    C141   C140      1.40504      .   S
    C139   H42       1.08794      .   S
    C139   C140      1.38524      .   S
    O242   Zn12      2.00711      .   S
    C165   H50       1.08661      .   S
    C170   H54       1.08772      .   S
    C170   C171      1.38458      .   S
    N187   C171      1.35165      .   S
    N187   Zn12      2.00592      .   S
    C136   C135      1.40740      .   S
    C140   H43       1.08748      .   S
    C171   H55       1.08812      .   S
    N182   Zn6       2.00677      .   S
    N182   C134      1.35674      .   S
    Zn12   O222      1.90270      .   S
    Zn6    O100      1.88977      .   S
    C128   O227      1.27492      .   S
    C128   C127      1.49374      .   S
    C135   C134      1.38333      .   S
    C135   H39       1.08708      .   S
    C59    O190      1.26837      .   S
    C59    C58       1.49620  1_565   S
    C134   H38       1.08764      .   S
    O227   Zn9       2.11155      .   S
    O190   Zn7       2.08540      .   S
    O188   C56       1.24581  1_565   S
    H37    C129      1.09071      .   S
    O225   C125      1.24584      .   S
    C127   C129      1.39874      .   S
    C127   C126      1.40195  1_655   S
    H15    C60       1.09051      .   S
    C58    C60       1.39702      .   S
    C58    C57       1.40064      .   S
    C129   C130      1.40284      .   S
    O202   C73       1.24015  1_655   S
    O223   C124      1.24153      .   S
    O222   C124      1.29693      .   S
    O100   C73       1.29567      .   S
    C56    C57       1.52262      .   S
    C56    O189      1.28903      .   S
    C60    C61       1.40227      .   S
    C125   C126      1.52361      .   S
    C125   O224      1.28927      .   S
    C126   N181      1.33642      .   S
    C57    N172      1.33651      .   S
    C124   C123      1.51331      .   S
    O228   C131      1.23872      .   S
    O193   Zn9       1.96159      .   S
    O193   C62       1.29739      .   S
    C130   C131      1.51630      .   S
    C130   C132      1.40442      .   S
    C131   O229      1.29735      .   S
    Zn7    O229      1.96881      .   S
    C61    C62       1.51462      .   S
    N181   C132      1.33984  1_455   S
    O211   Zn4       2.32146      .   S
    O243   Zn12      2.32523      .   S
