# CIF file generated by openbabel 2.4.90, see http://openbabel.sf.net
data_I
_chemical_name_common ''
_cell_length_a 14.637
_cell_length_b 15.146
_cell_length_c 16.082
_cell_angle_alpha 93.928
_cell_angle_beta 90.101
_cell_angle_gamma 89.975
_space_group_name_H-M_alt 'P 1'
_space_group_name_Hall 'P 1'
loop_
    _symmetry_equiv_pos_as_xyz
    x,y,z
loop_
    _atom_site_label
    _atom_site_type_symbol
    _atom_site_fract_x
    _atom_site_fract_y
    _atom_site_fract_z
    _atom_site_occupancy
    C0      C    0.42270   0.02380   0.90343   1.000
    C1      C    0.60669   0.97212   0.82155   1.000
    C2      C    0.75074   0.22993   0.98053   1.000
    C3      C    0.56172   0.25753   0.07327   1.000
    C4      C    0.91698   0.48165   0.09346   1.000
    C5      C    0.10010   0.51245   0.18735   1.000
    C6      C    0.21257   0.22756   0.04955   1.000
    C7      C    0.04498   0.23953   0.92696   1.000
    C8      C    0.91953   0.97075   0.59339   1.000
    C9      C    0.10240   0.02522   0.67774   1.000
    C10     C    0.25184   0.77058   0.52026   1.000
    C11     C    0.06446   0.73947   0.42452   1.000
    C12     C    0.41231   0.51927   0.40705   1.000
    C13     C    0.59441   0.48419   0.31167   1.000
    C14     C    0.71272   0.76818   0.44580   1.000
    C15     C    0.54827   0.75878   0.57193   1.000
    C16     C    0.57958   0.97506   0.09316   1.000
    C17     C    0.39561   0.02607   0.17459   1.000
    C18     C    0.25272   0.76713   0.01718   1.000
    C19     C    0.44201   0.74031   0.92298   1.000
    C20     C    0.08695   0.51593   0.90798   1.000
    C21     C    0.90400   0.48509   0.81417   1.000
    C22     C    0.79267   0.77155   0.95021   1.000
    C23     C    0.95870   0.75782   0.07465   1.000
    C24     C    0.08069   0.02607   0.40673   1.000
    C25     C    0.89842   0.97218   0.32314   1.000
    C26     C    0.74951   0.22818   0.47989   1.000
    C27     C    0.93781   0.25724   0.57678   1.000
    C28     C    0.58772   0.47805   0.58910   1.000
    C29     C    0.40586   0.51216   0.68517   1.000
    C30     C    0.28884   0.22739   0.55210   1.000
    C31     C    0.45295   0.23700   0.42546   1.000
