# CIF file generated by openbabel 2.4.90, see http://openbabel.sf.net
data_I
_chemical_name_common ''
_cell_length_a 13.087
_cell_length_b 16.838
_cell_length_c 13.96
_cell_angle_alpha 105.88
_cell_angle_beta 89.81
_cell_angle_gamma 90.133
_space_group_name_H-M_alt 'P 1'
_space_group_name_Hall 'P 1'
loop_
    _symmetry_equiv_pos_as_xyz
    x,y,z
loop_
    _atom_site_label
    _atom_site_type_symbol
    _atom_site_fract_x
    _atom_site_fract_y
    _atom_site_fract_z
    _atom_site_occupancy
    Zn0     Zn   0.44354   0.34732   0.10563   1.000
    Zn1     Zn   0.00412   0.18029   0.68739   1.000
    Zn2     Zn   0.94239   0.65222   0.39502   1.000
    Zn3     Zn   0.50232   0.17829   0.18685   1.000
    Zn4     Zn   0.55959   0.64999   0.89127   1.000
    Zn5     Zn   0.00000   0.81941   0.31243   1.000
    Zn6     Zn   0.05824   0.34768   0.60461   1.000
    Zn7     Zn   0.50146   0.81957   0.81287   1.000
