# CIF file generated by openbabel 2.4.90, see http://openbabel.sf.net
data_I
_chemical_name_common ''
_cell_length_a 13.087
_cell_length_b 16.838
_cell_length_c 13.96
_cell_angle_alpha 105.88
_cell_angle_beta 89.81
_cell_angle_gamma 90.133
_space_group_name_H-M_alt 'P 1'
_space_group_name_Hall 'P 1'
loop_
    _symmetry_equiv_pos_as_xyz
    x,y,z
loop_
    _atom_site_label
    _atom_site_type_symbol
    _atom_site_fract_x
    _atom_site_fract_y
    _atom_site_fract_z
    _atom_site_occupancy
    N0      N    0.26354   0.59060   0.13197   1.000
    N1      N    0.23759   0.59135   0.63193   1.000
    N2      N    0.31609   0.11261   0.87965   1.000
    N3      N    0.18566   0.11301   0.37737   1.000
    N4      N    0.68669   0.88524   0.11916   1.000
    N5      N    0.81652   0.88696   0.62189   1.000
    N6      N    0.76270   0.40882   0.36753   1.000
    N7      N    0.73889   0.40774   0.86568   1.000
    Zr8     Zr   0.44354   0.34732   0.10563   1.000
    O9      O    0.53440   0.36790   0.18558   1.000
    O10     O    0.52534   0.36639   0.03175   1.000
    O11     O    0.40911   0.27330   0.04520   1.000
    O12     O    0.38201   0.41590   0.11674   1.000
    Zr13    Zr   0.94239   0.65222   0.39502   1.000
    O14     O    0.90863   0.72625   0.45579   1.000
    O15     O    0.88094   0.58366   0.38361   1.000
    O16     O    0.02420   0.63287   0.46795   1.000
    O17     O    0.03381   0.63167   0.31469   1.000
    Zr18    Zr   0.50146   0.81957   0.81287   1.000
    O19     O    0.59526   0.84118   0.75831   1.000
    O20     O    0.42390   0.75125   0.75976   1.000
    O21     O    0.55738   0.83023   0.90357   1.000
    O22     O    0.44625   0.90533   0.83939   1.000
    Zr23    Zr   0.00000   0.81941   0.31243   1.000
    O24     O    0.05533   0.90535   0.33827   1.000
    O25     O    0.90664   0.84031   0.25714   1.000
    O26     O    0.94463   0.83074   0.40417   1.000
    O27     O    0.07754   0.75092   0.25952   1.000
    Zr28    Zr   0.50232   0.17829   0.18685   1.000
    O29     O    0.57860   0.24745   0.23993   1.000
    O30     O    0.40811   0.15739   0.24147   1.000
    O31     O    0.55733   0.09260   0.16011   1.000
    O32     O    0.44585   0.16766   0.09596   1.000
    Zr33    Zr   0.55959   0.64999   0.89127   1.000
    O34     O    0.47727   0.63114   0.96513   1.000
    O35     O    0.62100   0.58185   0.88066   1.000
    O36     O    0.46803   0.63039   0.81186   1.000
    O37     O    0.59371   0.72425   0.95257   1.000
    Zr38    Zr   0.05824   0.34768   0.60461   1.000
    O39     O    0.09272   0.27370   0.54377   1.000
    O40     O    0.97618   0.36695   0.53165   1.000
    O41     O    0.11969   0.41627   0.61567   1.000
    O42     O    0.96771   0.36786   0.68471   1.000
    Zr43    Zr   0.00412   0.18029   0.68739   1.000
    O44     O    0.05890   0.16908   0.59551   1.000
    O45     O    0.92617   0.24839   0.73980   1.000
    O46     O    0.09709   0.15861   0.74224   1.000
    O47     O    0.94820   0.09445   0.66148   1.000
loop_
    _geom_bond_atom_site_label_1
    _geom_bond_atom_site_label_2
    _geom_bond_distance
    _geom_bond_site_symmetry_2
    _ccdc_geom_bond_type
    Zr8    O9        1.60462      .   S
    N6     O9        3.86474      .   S
    Zr8    O10       1.57639      .   S
    N7     O10       3.80810  1_556   S
    Zr8    O11       1.37570      .   S
    N2     O11       3.27509  1_556   S
    Zr8    O12       1.38251      .   S
    N0     O12       3.28305      .   S
    Zr13   O14       1.37474      .   S
    N5     O14       3.27347      .   S
    Zr13   O15       1.37878      .   S
    N6     O15       3.27576      .   S
    Zr13   O16       1.57456  1_655   S
    N1     O16       3.80202      .   S
    Zr13   O17       1.60913  1_655   S
    N0     O17       3.87511      .   S
    Zr18   O19       1.53722      .   S
    N5     O19       3.65535      .   S
    Zr18   O20       1.56082      .   S
    N1     O20       3.70773      .   S
    Zr18   O21       1.43255      .   S
    N4     O21       3.35865  1_554   S
    Zr18   O22       1.56684      .   S
    N2     O22       3.78758  1_545   S
    Zr23   O24       1.56843      .   S
    N3     O24       3.79035  1_545   S
    Zr23   O25       1.53926  1_455   S
    N4     O25       3.66233      .   S
    Zr23   O26       1.43612  1_455   S
    N5     O26       3.36812      .   S
    Zr23   O27       1.56187      .   S
    N0     O27       3.70866      .   S
    Zr28   O29       1.55863      .   S
    N6     O29       3.70266      .   S
    Zr28   O30       1.53744      .   S
    N3     O30       3.65536      .   S
    Zr28   O31       1.56448      .   S
    N4     O31       3.78328  1_565   S
    Zr28   O32       1.43850      .   S
    N2     O32       3.37001  1_556   S
    Zr33   O34       1.57943      .   S
    N0     O34       3.81218  1_554   S
    Zr33   O35       1.37653      .   S
    N7     O35       3.27134      .   S
    Zr33   O36       1.60631      .   S
    N1     O36       3.86959      .   S
    Zr33   O37       1.38185      .   S
    N4     O37       3.28491  1_554   S
    Zr38   O39       1.37764      .   S
    N3     O39       3.27927      .   S
    Zr38   O40       1.57653  1_455   S
    N6     O40       3.80627      .   S
    Zr38   O41       1.37959      .   S
    N1     O41       3.27691      .   S
    Zr38   O42       1.59830  1_455   S
    N7     O42       3.85115      .   S
    Zr43   O44       1.43415      .   S
    N3     O44       3.36419      .   S
    Zr43   O45       1.55951  1_455   S
    N7     O45       3.70352      .   S
    Zr43   O46       1.53663      .   S
    N2     O46       3.65428      .   S
    Zr43   O47       1.57049  1_455   S
    N5     O47       3.79510  1_565   S
