# CIF file generated by openbabel 2.4.90, see http://openbabel.sf.net
data_I
_chemical_name_common ''
_cell_length_a 13.087
_cell_length_b 16.838
_cell_length_c 13.96
_cell_angle_alpha 105.88
_cell_angle_beta 89.81
_cell_angle_gamma 90.133
_space_group_name_H-M_alt 'P 1'
_space_group_name_Hall 'P 1'
loop_
    _symmetry_equiv_pos_as_xyz
    x,y,z
loop_
    _atom_site_label
    _atom_site_type_symbol
    _atom_site_fract_x
    _atom_site_fract_y
    _atom_site_fract_z
    _atom_site_occupancy
    C0      C    0.50146   0.81957   0.81287   1.000
    C1      C    0.44354   0.34732   0.10563   1.000
    C2      C    0.00412   0.18029   0.68739   1.000
    C3      C    0.94239   0.65222   0.39502   1.000
    C4      C    0.50232   0.17829   0.18685   1.000
    C5      C    0.55959   0.64999   0.89127   1.000
    C6      C    0.00000   0.81941   0.31243   1.000
    C7      C    0.05824   0.34768   0.60461   1.000
    C8      C    0.34969   0.49274   0.72079   1.000
    C9      C    0.07394   0.49529   0.54848   1.000
    C10     C    0.26951   0.70941   0.62879   1.000
    C11     C    0.24667   0.04042   0.75705   1.000
    C12     C    0.28888   0.27954   0.96373   1.000
    C13     C    0.45512   0.06612   0.00000   1.000
    C14     C    0.85105   0.50594   0.77623   1.000
    C15     C    0.57427   0.50329   0.94883   1.000
    C16     C    0.77111   0.29029   0.87123   1.000
    C17     C    0.74660   0.95911   0.74467   1.000
    C18     C    0.78827   0.72022   0.53746   1.000
    C19     C    0.95791   0.93312   0.50055   1.000
    C20     C    0.65252   0.50632   0.27573   1.000
    C21     C    0.92631   0.50497   0.45116   1.000
    C22     C    0.72948   0.29155   0.37290   1.000
    C23     C    0.75605   0.95694   0.24280   1.000
    C24     C    0.71414   0.71846   0.03472   1.000
    C25     C    0.54684   0.93206   0.99854   1.000
    C26     C    0.15335   0.49335   0.22530   1.000
    C27     C    0.42674   0.49426   0.04742   1.000
    C28     C    0.23062   0.70763   0.12633   1.000
    C29     C    0.25436   0.04090   0.25384   1.000
    C30     C    0.21428   0.27982   0.46172   1.000
    C31     C    0.04527   0.06702   0.49966   1.000
    C32     C    0.40735   0.65238   0.74002   1.000
    C33     C    0.31854   0.60603   0.68239   1.000
    C34     C    0.29917   0.52530   0.68264   1.000
    C35     C    0.20921   0.48339   0.63430   1.000
    C36     C    0.14202   0.52668   0.58491   1.000
    C37     C    0.16446   0.60609   0.58215   1.000
    C38     C    0.09962   0.64771   0.52101   1.000
    C39     C    0.25257   0.64652   0.63085   1.000
    C40     C    0.38811   0.95651   0.83150   1.000
    C41     C    0.35463   0.04415   0.87583   1.000
    C42     C    0.28299   0.07914   0.82357   1.000
    C43     C    0.25842   0.16405   0.85660   1.000
    C44     C    0.17714   0.19944   0.80350   1.000
    C45     C    0.30688   0.21385   0.93941   1.000
    C46     C    0.37837   0.17876   0.99377   1.000
    C47     C    0.40042   0.09254   0.96078   1.000
    C48     C    0.90913   0.34709   0.75894   1.000
    C49     C    0.82006   0.39322   0.81627   1.000
    C50     C    0.80045   0.47357   0.81495   1.000
    C51     C    0.71016   0.51527   0.86285   1.000
    C52     C    0.64271   0.47213   0.91278   1.000
    C53     C    0.66545   0.39309   0.91660   1.000
    C54     C    0.60083   0.35151   0.97846   1.000
    C55     C    0.75397   0.35288   0.86836   1.000
    C56     C    0.88990   0.04286   0.67108   1.000
    C57     C    0.85613   0.95528   0.62644   1.000
    C58     C    0.78333   0.92041   0.67825   1.000
    C59     C    0.75801   0.83563   0.64400   1.000
    C60     C    0.67543   0.80039   0.69709   1.000
    C61     C    0.80691   0.78583   0.56208   1.000
    C62     C    0.87944   0.82083   0.50812   1.000
    C63     C    0.90243   0.90688   0.54158   1.000
    C64     C    0.59424   0.34730   0.25832   1.000
    C65     C    0.68234   0.39393   0.31659   1.000
    C66     C    0.70229   0.47427   0.31515   1.000
    C67     C    0.79182   0.51645   0.36401   1.000
    C68     C    0.85822   0.47361   0.41473   1.000
    C69     C    0.83500   0.39461   0.41864   1.000
    C70     C    0.89859   0.35329   0.48097   1.000
    C71     C    0.74710   0.35406   0.36979   1.000
    C72     C    0.61449   0.04155   0.16869   1.000
    C73     C    0.64785   0.95379   0.12430   1.000
    C74     C    0.71972   0.91851   0.17610   1.000
    C75     C    0.74472   0.83367   0.14200   1.000
    C76     C    0.82683   0.79792   0.19420   1.000
    C77     C    0.69585   0.78408   0.05950   1.000
    C78     C    0.62368   0.81928   0.00000   1.000
    C79     C    0.60170   0.90553   0.03944   1.000
    C80     C    0.09477   0.65231   0.24182   1.000
    C81     C    0.18311   0.60553   0.18354   1.000
    C82     C    0.20309   0.52534   0.18536   1.000
    C83     C    0.29267   0.48319   0.13610   1.000
    C84     C    0.35887   0.52575   0.08435   1.000
    C85     C    0.33585   0.60464   0.08021   1.000
    C86     C    0.39972   0.64577   0.01724   1.000
    C87     C    0.24808   0.64522   0.12965   1.000
    C88     C    0.11195   0.95726   0.32874   1.000
    C89     C    0.14596   0.04479   0.37296   1.000
    C90     C    0.21825   0.07963   0.32062   1.000
    C91     C    0.24388   0.16438   0.35414   1.000
    C92     C    0.32647   0.19928   0.30140   1.000
    C93     C    0.19552   0.21424   0.43706   1.000
    C94     C    0.12343   0.17928   0.49145   1.000
    C95     C    0.10038   0.09322   0.45822   1.000
    C96     C    0.47113   0.61045   0.77467   1.000
    C97     C    0.40872   0.72944   0.74987   1.000
    C98     C    0.19118   0.40902   0.63844   1.000
    C99     C    0.00646   0.61912   0.50460   1.000
    C100    C    0.13787   0.70201   0.48700   1.000
    C101    C    0.43056   0.91962   0.89145   1.000
    C102    C    0.37783   0.92578   0.74010   1.000
    C103    C    0.12393   0.14223   0.74171   1.000
    C104    C    0.16444   0.27491   0.82116   1.000
    C105    C    0.42301   0.22461   0.07417   1.000
    C106    C    0.97273   0.38895   0.72330   1.000
    C107    C    0.91098   0.27019   0.75006   1.000
    C108    C    0.69226   0.58934   0.85757   1.000
    C109    C    0.50724   0.37898   0.99448   1.000
    C110    C    0.63986   0.29817   0.00000   1.000
    C111    C    0.93196   0.08020   0.61110   1.000
    C112    C    0.87996   0.07303   0.76264   1.000
    C113    C    0.62178   0.85771   0.75837   1.000
    C114    C    0.66223   0.72492   0.67943   1.000
    C115    C    0.92401   0.77494   0.42743   1.000
    C116    C    0.53211   0.38891   0.22140   1.000
    C117    C    0.59186   0.27052   0.25015   1.000
    C118    C    0.81012   0.59051   0.35874   1.000
    C119    C    0.99288   0.37958   0.49513   1.000
    C120    C    0.85835   0.30126   0.51700   1.000
    C121    C    0.57368   0.07891   0.10828   1.000
    C122    C    0.62333   0.07213   0.26022   1.000
    C123    C    0.87977   0.85498   0.25663   1.000
    C124    C    0.83998   0.72244   0.17525   1.000
    C125    C    0.57837   0.77356   0.92590   1.000
    C126    C    0.03148   0.61101   0.27851   1.000
    C127    C    0.09329   0.72917   0.25008   1.000
    C128    C    0.31131   0.40940   0.14181   1.000
    C129    C    0.49319   0.61796   0.00078   1.000
    C130    C    0.36044   0.69904   0.98304   1.000
    C131    C    0.07132   0.91978   0.38930   1.000
    C132    C    0.12030   0.92704   0.23700   1.000
    C133    C    0.38199   0.14165   0.24277   1.000
    C134    C    0.33796   0.27471   0.31657   1.000
    C135    C    0.07928   0.22517   0.57241   1.000
    O136    O    0.61269   0.86240   0.01972   1.000
    O137    O    0.65977   0.80168   0.02975   1.000
    O138    O    0.60103   0.79642   0.96295   1.000
    O139    O    0.62034   0.32484   0.98923   1.000
    O140    O    0.42777   0.07933   0.98039   1.000
    O141    O    0.44645   0.63187   0.00901   1.000
    O142    O    0.52639   0.63398   0.94603   1.000
    O143    O    0.36778   0.62520   0.04873   1.000
    O144    O    0.38008   0.67240   0.00014   1.000
    O145    O    0.70500   0.75127   0.04711   1.000
    O146    O    0.62478   0.92966   0.08187   1.000
    O147    O    0.57427   0.91879   0.01899   1.000
    O148    O    0.39280   0.51001   0.06588   1.000
    O149    O    0.72028   0.80888   0.10075   1.000
    O150    O    0.43328   0.28597   0.08990   1.000
    O151    O    0.40069   0.20168   0.03397   1.000
    O152    O    0.34736   0.56520   0.08228   1.000
    O153    O    0.29196   0.62493   0.10493   1.000
    O154    O    0.32577   0.50447   0.11023   1.000
    O155    O    0.37742   0.37836   0.12372   1.000
    O156    O    0.48782   0.36812   0.16352   1.000
    O157    O    0.47539   0.36315   0.05006   1.000
    O158    O    0.59408   0.06023   0.13849   1.000
    O159    O    0.53800   0.12860   0.14757   1.000
    O160    O    0.63117   0.99767   0.14650   1.000
    O161    O    0.68379   0.93615   0.15020   1.000
    O162    O    0.23935   0.67642   0.12799   1.000
    O163    O    0.21559   0.62537   0.15660   1.000
    O164    O    0.30199   0.44629   0.13895   1.000
    O165    O    0.24788   0.50426   0.16073   1.000
    O166    O    0.73222   0.87609   0.15905   1.000
    O167    O    0.78577   0.81580   0.16810   1.000
    O168    O    0.61891   0.05684   0.21446   1.000
    O169    O    0.83340   0.76018   0.18473   1.000
    O170    O    0.73789   0.93772   0.20945   1.000
    O171    O    0.19310   0.56543   0.18445   1.000
    O172    O    0.13894   0.62892   0.21268   1.000
    O173    O    0.17822   0.50934   0.20533   1.000
    O174    O    0.44215   0.15997   0.21481   1.000
    O175    O    0.54709   0.22440   0.21850   1.000
    O176    O    0.85330   0.82645   0.22542   1.000
    O177    O    0.56317   0.36811   0.23986   1.000
    O178    O    0.11613   0.94215   0.28287   1.000
    O179    O    0.09403   0.69074   0.24595   1.000
    O180    O    0.06313   0.63166   0.26017   1.000
    O181    O    0.35423   0.17046   0.27209   1.000
    O182    O    0.04664   0.77429   0.28126   1.000
    O183    O    0.59305   0.30891   0.25423   1.000
    O184    O    0.23630   0.06026   0.28723   1.000
    O185    O    0.93988   0.83719   0.28453   1.000
    O186    O    0.63829   0.37062   0.28746   1.000
    O187    O    0.67741   0.49030   0.29544   1.000
    O188    O    0.98694   0.63162   0.33676   1.000
    O189    O    0.33222   0.23699   0.30899   1.000
    O190    O    0.28517   0.18183   0.32777   1.000
    O191    O    0.03566   0.86960   0.35086   1.000
    O192    O    0.69231   0.43410   0.31587   1.000
    O193    O    0.74706   0.49536   0.33958   1.000
    O194    O    0.71472   0.37399   0.34319   1.000
    O195    O    0.23106   0.12200   0.33738   1.000
    O196    O    0.18211   0.06221   0.34679   1.000
    O197    O    0.12896   0.00102   0.35085   1.000
    O198    O    0.09164   0.93852   0.35902   1.000
    O199    O    0.21970   0.18931   0.39560   1.000
    O200    O    0.80097   0.55348   0.36138   1.000
    O201    O    0.87626   0.62136   0.37688   1.000
    O202    O    0.82502   0.49503   0.38937   1.000
    O203    O    0.73829   0.32281   0.37135   1.000
    O204    O    0.79105   0.37434   0.39422   1.000
    O205    O    0.12317   0.06900   0.41559   1.000
    O206    O    0.93320   0.71358   0.41123   1.000
    O207    O    0.97442   0.63567   0.44981   1.000
    O208    O    0.84661   0.43411   0.41669   1.000
    O209    O    0.89226   0.48929   0.43295   1.000
    O210    O    0.86679   0.37395   0.44981   1.000
    O211    O    0.90172   0.79788   0.46778   1.000
    O212    O    0.20490   0.24703   0.44939   1.000
    O213    O    0.15947   0.19676   0.46425   1.000
    O214    O    0.11190   0.13625   0.47484   1.000
    O215    O    0.07282   0.08012   0.47894   1.000
    O216    O    0.94573   0.36644   0.48805   1.000
    O217    O    0.87846   0.32727   0.49899   1.000
    O218    O    0.11874   0.67486   0.50400   1.000
    O219    O    0.10136   0.20222   0.53193   1.000
    O220    O    0.02555   0.36363   0.54987   1.000
    O221    O    0.93017   0.92000   0.52107   1.000
    O222    O    0.05304   0.63342   0.51280   1.000
    O223    O    0.89093   0.86386   0.52485   1.000
    O224    O    0.84317   0.80333   0.53510   1.000
    O225    O    0.13204   0.62690   0.55158   1.000
    O226    O    0.79759   0.75302   0.54977   1.000
    O227    O    0.87928   0.93108   0.58401   1.000
    O228    O    0.10798   0.51098   0.56670   1.000
    O229    O    0.78246   0.81073   0.60304   1.000
    O230    O    0.06876   0.28642   0.58851   1.000
    O231    O    0.15324   0.56638   0.58353   1.000
    O232    O    0.20851   0.62631   0.60650   1.000
    O233    O    0.17561   0.50503   0.60961   1.000
    O234    O    0.12471   0.37835   0.62153   1.000
    O235    O    0.01548   0.36832   0.66396   1.000
    O236    O    0.91093   0.06153   0.64109   1.000
    O237    O    0.96804   0.13025   0.64925   1.000
    O238    O    0.87301   0.99907   0.64876   1.000
    O239    O    0.81973   0.93785   0.65235   1.000
    O240    O    0.26104   0.67797   0.62982   1.000
    O241    O    0.28555   0.62627   0.65662   1.000
    O242    O    0.20019   0.44621   0.63637   1.000
    O243    O    0.25419   0.50435   0.65847   1.000
    O244    O    0.77067   0.87802   0.66113   1.000
    O245    O    0.71672   0.81801   0.67055   1.000
    O246    O    0.88493   0.05794   0.71686   1.000
    O247    O    0.76496   0.93976   0.71146   1.000
    O248    O    0.66883   0.76266   0.68826   1.000
    O249    O    0.30886   0.56566   0.68252   1.000
    O250    O    0.36294   0.62920   0.71121   1.000
    O251    O    0.32443   0.50902   0.70172   1.000
    O252    O    0.06402   0.16126   0.71455   1.000
    O253    O    0.95755   0.22524   0.71873   1.000
    O254    O    0.64860   0.82905   0.72773   1.000
    O255    O    0.94093   0.36802   0.74112   1.000
    O256    O    0.40803   0.69091   0.74495   1.000
    O257    O    0.43924   0.63142   0.75735   1.000
    O258    O    0.38297   0.94115   0.78580   1.000
    O259    O    0.15054   0.17084   0.77260   1.000
    O260    O    0.45509   0.77450   0.78137   1.000
    O261    O    0.91006   0.30864   0.75450   1.000
    O262    O    0.26483   0.05978   0.79031   1.000
    O263    O    0.56162   0.83864   0.78562   1.000
    O264    O    0.86460   0.37016   0.78760   1.000
    O265    O    0.51536   0.63022   0.83297   1.000
    O266    O    0.82575   0.48976   0.79559   1.000
    O267    O    0.17079   0.23717   0.81233   1.000
    O268    O    0.21778   0.18175   0.83005   1.000
    O269    O    0.46601   0.86960   0.85216   1.000
    O270    O    0.81026   0.43339   0.81561   1.000
    O271    O    0.75531   0.49442   0.83890   1.000
    O272    O    0.78702   0.37305   0.84232   1.000
    O273    O    0.27071   0.12160   0.84009   1.000
    O274    O    0.31881   0.06165   0.84970   1.000
    O275    O    0.37137   0.00033   0.85367   1.000
    O276    O    0.40934   0.93807   0.86148   1.000
    O277    O    0.28265   0.18895   0.89801   1.000
    O278    O    0.70121   0.55231   0.86021   1.000
    O279    O    0.62592   0.61967   0.87442   1.000
    O280    O    0.67644   0.49370   0.88782   1.000
    O281    O    0.76254   0.32159   0.86980   1.000
    O282    O    0.70971   0.37299   0.89248   1.000
    O283    O    0.37753   0.06835   0.91831   1.000
    O284    O    0.56898   0.71177   0.90859   1.000
    O285    O    0.65408   0.43261   0.91469   1.000
    O286    O    0.60849   0.48771   0.93081   1.000
    O287    O    0.63314   0.37230   0.94753   1.000
    O288    O    0.29788   0.24669   0.95157   1.000
    O289    O    0.34262   0.19630   0.96659   1.000
    O290    O    0.38939   0.13565   0.97728   1.000
    O291    O    0.55403   0.36524   0.98647   1.000
    O292    O    0.46266   0.20145   0.13051   1.000
    O293    O    0.96201   0.79717   0.36993   1.000
    O294    O    0.53992   0.79656   0.86938   1.000
    O295    O    0.04170   0.20273   0.62990   1.000
loop_
    _geom_bond_atom_site_label_1
    _geom_bond_atom_site_label_2
    _geom_bond_distance
    _geom_bond_site_symmetry_2
    _ccdc_geom_bond_type
    C78    O136      0.71737      .   S
    C79    O136      0.71737      .   S
    C78    O137      0.74336      .   S
    C77    O137      0.74336      .   S
    C78    O138      0.62859  1_554   S
    C125   O138      0.62859      .   S
    C110   O139      0.57208  1_554   S
    C54    O139      0.57208      .   S
    C13    O140      0.53562  1_554   S
    C47    O140      0.53562      .   S
    C129   O141      0.65389      .   S
    C86    O141      0.65389      .   S
    C129   O142      0.97766  1_554   S
    C5     O142      0.97766      .   S
    C86    O143      0.75444      .   S
    C85    O143      0.75444      .   S
    C86    O144      0.61939      .   S
    C130   O144      0.61939  1_556   S
    C24    O145      0.54531      .   S
    C77    O145      0.54531      .   S
    C79    O146      0.68996      .   S
    C73    O146      0.68996      .   S
    C79    O147      0.54424      .   S
    C25    O147      0.54424  1_556   S
    C27    O148      0.54440      .   S
    C84    O148      0.54440      .   S
    C77    O149      0.69078      .   S
    C75    O149      0.69078      .   S
    C105   O150      1.00451      .   S
    C1     O150      1.00451      .   S
    C105   O151      0.65673      .   S
    C46    O151      0.65673  1_556   S
    C85    O152      0.68963      .   S
    C84    O152      0.68963      .   S
    C85    O153      0.70761      .   S
    C87    O153      0.70761      .   S
    C84    O154      0.71806      .   S
    C83    O154      0.71806      .   S
    C1     O155      1.00698      .   S
    C128   O155      1.00698      .   S
    C1     O156      0.97916      .   S
    C116   O156      0.97916      .   S
    C1     O157      0.97834      .   S
    C109   O157      0.97834  1_556   S
    C121   O158      0.64946      .   S
    C72    O158      0.64946      .   S
    C121   O159      0.98379      .   S
    C4     O159      0.98379      .   S
    C73    O160      0.75135      .   S
    C72    O160      0.75135  1_545   S
    C73    O161      0.70759      .   S
    C74    O161      0.70759      .   S
    C28    O162      0.54468      .   S
    C87    O162      0.54468      .   S
    C87    O163      0.70776      .   S
    C81    O163      0.70776      .   S
    C83    O164      0.64525      .   S
    C128   O164      0.64525      .   S
    C83    O165      0.72148      .   S
    C82    O165      0.72148      .   S
    C75    O166      0.70765      .   S
    C74    O166      0.70765      .   S
    C75    O167      0.75768      .   S
    C76    O167      0.75768      .   S
    C72    O168      0.62287      .   S
    C122   O168      0.62287      .   S
    C124   O169      0.61884      .   S
    C76    O169      0.61884      .   S
    C74    O170      0.54397      .   S
    C23    O170      0.54397      .   S
    C81    O171      0.69153      .   S
    C82    O171      0.69153      .   S
    C81    O172      0.75267      .   S
    C80    O172      0.75267      .   S
    C82    O173      0.54434      .   S
    C26    O173      0.54434      .   S
    C4     O174      0.96442      .   S
    C133   O174      0.96442      .   S
    C4     O175      0.97638      .   S
    C117   O175      0.97638      .   S
    C76    O176      0.65294      .   S
    C123   O176      0.65294      .   S
    C116   O177      0.63656      .   S
    C64    O177      0.63656      .   S
    C132   O178      0.62324      .   S
    C88    O178      0.62324      .   S
    C80    O179      0.63378      .   S
    C127   O179      0.63378      .   S
    C80    O180      0.63668      .   S
    C126   O180      0.63668      .   S
    C133   O181      0.65271      .   S
    C92    O181      0.65271      .   S
    C127   O182      0.97911      .   S
    C6     O182      0.97911      .   S
    C117   O183      0.63340      .   S
    C64    O183      0.63340      .   S
    C29    O184      0.54392      .   S
    C90    O184      0.54392      .   S
    C123   O185      0.96297      .   S
    C6     O185      0.96297  1_455   S
    C64    O186      0.75161      .   S
    C65    O186      0.75161      .   S
    C20    O187      0.54426      .   S
    C66    O187      0.54426      .   S
    C126   O188      0.98233  1_455   S
    C3     O188      0.98233      .   S
    C92    O189      0.61899      .   S
    C134   O189      0.61899      .   S
    C92    O190      0.75571      .   S
    C91    O190      0.75571      .   S
    C6     O191      0.98564      .   S
    C131   O191      0.98564      .   S
    C66    O192      0.69138      .   S
    C65    O192      0.69138      .   S
    C66    O193      0.72087      .   S
    C67    O193      0.72087      .   S
    C65    O194      0.70716      .   S
    C71    O194      0.70716      .   S
    C90    O195      0.70735      .   S
    C91    O195      0.70735      .   S
    C90    O196      0.70715      .   S
    C89    O196      0.70715      .   S
    C88    O197      0.75038  1_565   S
    C89    O197      0.75038      .   S
    C88    O198      0.64868      .   S
    C131   O198      0.64868      .   S
    C91    O199      0.69120      .   S
    C93    O199      0.69120      .   S
    C118   O200      0.64545      .   S
    C67    O200      0.64545      .   S
    C118   O201      1.00529      .   S
    C3     O201      1.00529      .   S
    C67    O202      0.71816      .   S
    C68    O202      0.71816      .   S
    C71    O203      0.54467      .   S
    C22    O203      0.54467      .   S
    C71    O204      0.70736      .   S
    C69    O204      0.70736      .   S
    C89    O205      0.68991      .   S
    C95    O205      0.68991      .   S
    C3     O206      1.00273      .   S
    C115   O206      1.00273      .   S
    C3     O207      0.97863      .   S
    C99    O207      0.97863  1_455   S
    C68    O208      0.68966      .   S
    C69    O208      0.68966      .   S
    C68    O209      0.54436      .   S
    C21    O209      0.54436      .   S
    C69    O210      0.75374      .   S
    C70    O210      0.75374      .   S
    C115   O211      0.65722      .   S
    C62    O211      0.65722      .   S
    C93    O212      0.54530      .   S
    C30    O212      0.54530      .   S
    C93    O213      0.71596      .   S
    C94    O213      0.71596      .   S
    C95    O214      0.71361      .   S
    C94    O214      0.71361      .   S
    C95    O215      0.54428      .   S
    C31    O215      0.54428      .   S
    C70    O216      0.65364      .   S
    C119   O216      0.65364      .   S
    C70    O217      0.61950      .   S
    C120   O217      0.61950      .   S
    C100   O218      0.62161      .   S
    C38    O218      0.62161      .   S
    C94    O219      0.65728      .   S
    C135   O219      0.65728      .   S
    C119   O220      0.97674  1_655   S
    C7     O220      0.97674      .   S
    C19    O221      0.54422      .   S
    C63    O221      0.54422      .   S
    C99    O222      0.65376      .   S
    C38    O222      0.65376      .   S
    C62    O223      0.71353      .   S
    C63    O223      0.71353      .   S
    C62    O224      0.71611      .   S
    C61    O224      0.71611      .   S
    C38    O225      0.75406      .   S
    C37    O225      0.75406      .   S
    C18    O226      0.54537      .   S
    C61    O226      0.54537      .   S
    C63    O227      0.68991      .   S
    C57    O227      0.68991      .   S
    C9     O228      0.54442      .   S
    C36    O228      0.54442      .   S
    C61    O229      0.68798      .   S
    C59    O229      0.68798      .   S
    C135   O230      1.00346      .   S
    C7     O230      1.00346      .   S
    C37    O231      0.68957      .   S
    C36    O231      0.68957      .   S
    C37    O232      0.70773      .   S
    C39    O232      0.70773      .   S
    C36    O233      0.71797      .   S
    C35    O233      0.71797      .   S
    C7     O234      1.00585      .   S
    C98    O234      1.00585      .   S
    C7     O235      0.97999      .   S
    C106   O235      0.97999  1_655   S
    C111   O236      0.64866      .   S
    C56    O236      0.64866      .   S
    C111   O237      0.98531      .   S
    C2     O237      0.98531  1_455   S
    C57    O238      0.75066      .   S
    C56    O238      0.75066  1_545   S
    C57    O239      0.70728      .   S
    C58    O239      0.70728      .   S
    C10    O240      0.54472      .   S
    C39    O240      0.54472      .   S
    C39    O241      0.70771      .   S
    C33    O241      0.70771      .   S
    C35    O242      0.64519      .   S
    C98    O242      0.64519      .   S
    C35    O243      0.72119      .   S
    C34    O243      0.72119      .   S
    C59    O244      0.70736      .   S
    C58    O244      0.70736      .   S
    C59    O245      0.75858      .   S
    C60    O245      0.75858      .   S
    C56    O246      0.62302      .   S
    C112   O246      0.62302      .   S
    C58    O247      0.54389      .   S
    C17    O247      0.54389      .   S
    C114   O248      0.61918      .   S
    C60    O248      0.61918      .   S
    C33    O249      0.69150      .   S
    C34    O249      0.69150      .   S
    C33    O250      0.75259      .   S
    C32    O250      0.75259      .   S
    C34    O251      0.54429      .   S
    C8     O251      0.54429      .   S
    C2     O252      0.96475      .   S
    C103   O252      0.96475      .   S
    C2     O253      0.97708  1_455   S
    C107   O253      0.97708      .   S
    C60    O254      0.65258      .   S
    C113   O254      0.65258      .   S
    C106   O255      0.63709      .   S
    C48    O255      0.63709      .   S
    C32    O256      0.63346      .   S
    C97    O256      0.63346      .   S
    C32    O257      0.63669      .   S
    C96    O257      0.63669      .   S
    C102   O258      0.62318      .   S
    C40    O258      0.62318      .   S
    C103   O259      0.65254      .   S
    C44    O259      0.65254      .   S
    C97    O260      0.97695      .   S
    C0     O260      0.97695      .   S
    C107   O261      0.63349      .   S
    C48    O261      0.63349      .   S
    C11    O262      0.54395      .   S
    C42    O262      0.54395      .   S
    C113   O263      0.96512      .   S
    C0     O263      0.96512      .   S
    C48    O264      0.75173      .   S
    C49    O264      0.75173      .   S
    C96    O265      0.98089      .   S
    C5     O265      0.98089      .   S
    C14    O266      0.54429      .   S
    C50    O266      0.54429      .   S
    C44    O267      0.61893      .   S
    C104   O267      0.61893      .   S
    C44    O268      0.75598      .   S
    C43    O268      0.75598      .   S
    C0     O269      0.98636      .   S
    C101   O269      0.98636      .   S
    C50    O270      0.69130      .   S
    C49    O270      0.69130      .   S
    C50    O271      0.72080      .   S
    C51    O271      0.72080      .   S
    C49    O272      0.70742      .   S
    C55    O272      0.70742      .   S
    C42    O273      0.70714      .   S
    C43    O273      0.70714      .   S
    C42    O274      0.70724      .   S
    C41    O274      0.70724      .   S
    C40    O275      0.75068  1_565   S
    C41    O275      0.75068      .   S
    C40    O276      0.64884      .   S
    C101   O276      0.64884      .   S
    C43    O277      0.69166      .   S
    C45    O277      0.69166      .   S
    C108   O278      0.64566      .   S
    C51    O278      0.64566      .   S
    C108   O279      1.00236      .   S
    C5     O279      1.00236      .   S
    C51    O280      0.71813      .   S
    C52    O280      0.71813      .   S
    C55    O281      0.54469      .   S
    C16    O281      0.54469      .   S
    C55    O282      0.70764      .   S
    C53    O282      0.70764      .   S
    C41    O283      0.68974      .   S
    C47    O283      0.68974      .   S
    C5     O284      1.00883      .   S
    C125   O284      1.00883      .   S
    C52    O285      0.68975      .   S
    C53    O285      0.68975      .   S
    C52    O286      0.54445      .   S
    C15    O286      0.54445      .   S
    C53    O287      0.75407      .   S
    C54    O287      0.75407      .   S
    C45    O288      0.54534      .   S
    C12    O288      0.54534      .   S
    C45    O289      0.71635      .   S
    C46    O289      0.71635      .   S
    C47    O290      0.71381      .   S
    C46    O290      0.71381      .   S
    C54    O291      0.65349      .   S
    C109   O291      0.65349      .   S
    C105   O292      1.10066      .   S
    C4     O292      1.10066      .   S
    C115   O293      1.09210      .   S
    C6     O293      1.09210  1_455   S
    C125   O294      1.09390      .   S
    C0     O294      1.09390      .   S
    C135   O295      1.09143      .   S
    C2     O295      1.09143      .   S
