# CIF file generated by openbabel 2.4.90, see http://openbabel.sf.net
data_I
_chemical_name_common ''
_cell_length_a 15.885
_cell_length_b 18.338
_cell_length_c 19.602
_cell_angle_alpha 92.926
_cell_angle_beta 114.074
_cell_angle_gamma 82.713
_space_group_name_H-M_alt 'P 1'
_space_group_name_Hall 'P 1'
loop_
    _symmetry_equiv_pos_as_xyz
    x,y,z
loop_
    _atom_site_label
    _atom_site_type_symbol
    _atom_site_fract_x
    _atom_site_fract_y
    _atom_site_fract_z
    _atom_site_occupancy
    Zr0     Zr   0.00004   0.24998   0.25000   1.000
    Zr1     Zr   0.00005   0.24998   0.74998   1.000
    Zr2     Zr   0.00005   0.74996   0.25000   1.000
    Zr3     Zr   0.00005   0.74996   0.74998   1.000
    Zr4     Zr   0.50004   0.24998   0.25000   1.000
    Zr5     Zr   0.50004   0.24998   0.74998   1.000
    Zr6     Zr   0.50004   0.74996   0.25000   1.000
    Zr7     Zr   0.50004   0.74996   0.74998   1.000
    Zr8     Zr   0.25004   0.24997   0.25000   1.000
    Zr9     Zr   0.25004   0.24997   0.74998   1.000
    Zr10    Zr   0.25004   0.74996   0.25000   1.000
    Zr11    Zr   0.25005   0.74996   0.74998   1.000
    Zr12    Zr   0.75003   0.24998   0.24999   1.000
    Zr13    Zr   0.75003   0.24998   0.74998   1.000
    Zr14    Zr   0.75003   0.74996   0.24999   1.000
    Zr15    Zr   0.75004   0.74996   0.74998   1.000
    Zr16    Zr   0.25004   0.99998   0.00000   1.000
    Zr17    Zr   0.25004   0.99998   0.49999   1.000
    Zr18    Zr   0.25005   0.49996   0.00000   1.000
    Zr19    Zr   0.25004   0.49997   0.49999   1.000
    Zr20    Zr   0.75004   0.99998   0.00000   1.000
    Zr21    Zr   0.75003   0.99998   0.49999   1.000
    Zr22    Zr   0.75004   0.49997   0.00000   1.000
    Zr23    Zr   0.75004   0.49997   0.49999   1.000
    N24     N    0.92807   0.99995   0.85539   1.000
    O25     O    0.74801   0.10363   0.82159   1.000
    O26     O    0.07412   0.89630   0.82160   1.000
    O27     O    0.83140   0.10162   0.82033   1.000
    O28     O    0.98946   0.89828   0.82032   1.000
    O29     O    0.83243   0.02063   0.90435   1.000
    O30     O    0.07256   0.97927   0.90434   1.000
    N31     N    0.57201   0.49999   0.14457   1.000
    O32     O    0.51062   0.60166   0.17965   1.000
    O33     O    0.66868   0.39833   0.17964   1.000
    O34     O    0.42596   0.60364   0.17838   1.000
    O35     O    0.42753   0.52066   0.09564   1.000
    O36     O    0.75207   0.39632   0.17836   1.000
    O37     O    0.66765   0.47932   0.09561   1.000
    N38     N    0.42806   0.49995   0.35541   1.000
    O39     O    0.48945   0.39828   0.32034   1.000
    O40     O    0.33243   0.52062   0.40437   1.000
    O41     O    0.57255   0.47928   0.40434   1.000
    O42     O    0.24801   0.60362   0.32161   1.000
    O43     O    0.33140   0.60161   0.32035   1.000
    O44     O    0.57411   0.39630   0.32161   1.000
    N45     N    0.42807   0.49995   0.85539   1.000
    O46     O    0.48946   0.39828   0.82032   1.000
    O47     O    0.57412   0.39630   0.82159   1.000
    O48     O    0.33243   0.52062   0.90437   1.000
    O49     O    0.24802   0.60362   0.82159   1.000
    O50     O    0.57255   0.47928   0.90434   1.000
    O51     O    0.33140   0.60161   0.82033   1.000
    N52     N    0.07201   0.99999   0.14458   1.000
    O53     O    0.01062   0.10167   0.17964   1.000
    O54     O    0.16868   0.89832   0.17964   1.000
    O55     O    0.92595   0.10365   0.17838   1.000
    O56     O    0.92752   0.02067   0.09564   1.000
    O57     O    0.16765   0.97932   0.09562   1.000
    O58     O    0.25206   0.89632   0.17838   1.000
    N59     N    0.57201   0.99999   0.14450   1.000
    O60     O    0.42596   0.10364   0.17834   1.000
    O61     O    0.75207   0.89632   0.17834   1.000
    O62     O    0.51062   0.10167   0.17962   1.000
    O63     O    0.66868   0.89833   0.17960   1.000
    O64     O    0.66765   0.97932   0.09558   1.000
    O65     O    0.42753   0.02067   0.09561   1.000
    N66     N    0.07202   0.99999   0.64456   1.000
    O67     O    0.16765   0.97932   0.59560   1.000
    O68     O    0.16868   0.89832   0.67962   1.000
    O69     O    0.92596   0.10364   0.67836   1.000
    O70     O    0.25207   0.89632   0.67836   1.000
    O71     O    0.01062   0.10166   0.67963   1.000
    O72     O    0.92752   0.02067   0.59563   1.000
    N73     N    0.92806   0.99995   0.35539   1.000
    O74     O    0.98946   0.89828   0.32032   1.000
    O75     O    0.74801   0.10363   0.32160   1.000
    O76     O    0.07255   0.97928   0.40433   1.000
    O77     O    0.83243   0.02063   0.40436   1.000
    O78     O    0.83139   0.10162   0.32034   1.000
    O79     O    0.07412   0.89630   0.32160   1.000
    N80     N    0.07201   0.49999   0.14458   1.000
    O81     O    0.16765   0.47932   0.09562   1.000
    O82     O    0.01062   0.60166   0.17965   1.000
    O83     O    0.92752   0.52067   0.09564   1.000
    O84     O    0.16868   0.39833   0.17964   1.000
    O85     O    0.92595   0.60364   0.17838   1.000
    O86     O    0.25206   0.39632   0.17838   1.000
    N87     N    0.07202   0.49999   0.64456   1.000
    O88     O    0.25207   0.39632   0.67836   1.000
    O89     O    0.16765   0.47932   0.59560   1.000
    O90     O    0.92752   0.52067   0.59563   1.000
    O91     O    0.01062   0.60166   0.67963   1.000
    O92     O    0.16868   0.39833   0.67962   1.000
    O93     O    0.92596   0.60364   0.67836   1.000
    N94     N    0.57202   0.99999   0.64456   1.000
    O95     O    0.42753   0.02067   0.59563   1.000
    O96     O    0.42596   0.10364   0.67836   1.000
    O97     O    0.66868   0.89833   0.67963   1.000
    O98     O    0.66765   0.97932   0.59560   1.000
    O99     O    0.51062   0.10167   0.67963   1.000
    O100    O    0.75207   0.89632   0.67837   1.000
    N101    N    0.92807   0.49995   0.85539   1.000
    O102    O    0.98946   0.39828   0.82032   1.000
    O103    O    0.07412   0.39630   0.82159   1.000
    O104    O    0.83140   0.60161   0.82031   1.000
    O105    O    0.83243   0.52062   0.90434   1.000
    O106    O    0.74801   0.60362   0.82159   1.000
    O107    O    0.07256   0.47927   0.90433   1.000
    N108    N    0.92806   0.49995   0.35541   1.000
    O109    O    0.83139   0.60161   0.32035   1.000
    O110    O    0.83243   0.52062   0.40437   1.000
    O111    O    0.74801   0.60362   0.32161   1.000
    O112    O    0.07412   0.39630   0.32161   1.000
    O113    O    0.98946   0.39828   0.32034   1.000
    O114    O    0.07255   0.47928   0.40434   1.000
    N115    N    0.57202   0.49999   0.64456   1.000
    O116    O    0.75207   0.39632   0.67837   1.000
    O117    O    0.66868   0.39833   0.67963   1.000
    O118    O    0.42596   0.60364   0.67836   1.000
    O119    O    0.42753   0.52066   0.59563   1.000
    O120    O    0.66765   0.47932   0.59560   1.000
    O121    O    0.51062   0.60166   0.67963   1.000
    N122    N    0.42807   0.99995   0.85539   1.000
    O123    O    0.57255   0.97928   0.90432   1.000
    O124    O    0.33243   0.02063   0.90436   1.000
    O125    O    0.57412   0.89630   0.82159   1.000
    O126    O    0.33140   0.10161   0.82033   1.000
    O127    O    0.24802   0.10362   0.82159   1.000
    O128    O    0.48946   0.89828   0.82032   1.000
    N129    N    0.42806   0.99995   0.35541   1.000
    O130    O    0.24801   0.10363   0.32161   1.000
    O131    O    0.48945   0.89828   0.32034   1.000
    O132    O    0.33140   0.10162   0.32035   1.000
    O133    O    0.57255   0.97928   0.40434   1.000
    O134    O    0.57412   0.89630   0.32161   1.000
    O135    O    0.33243   0.02063   0.40437   1.000
loop_
    _geom_bond_atom_site_label_1
    _geom_bond_atom_site_label_2
    _geom_bond_distance
    _geom_bond_site_symmetry_2
    _ccdc_geom_bond_type
    N24    O25       3.07200  1_565   S
    Zr5    O25       4.22860      .   S
    N24    O26       3.07271  1_655   S
    Zr11   O26       4.23020      .   S
    N24    O27       2.20222  1_565   S
    Zr13   O27       3.00185      .   S
    N24    O28       2.20340      .   S
    Zr3    O28       3.00279  1_455   S
    N24    O29       2.09251  1_565   S
    Zr20   O29       2.75177  1_564   S
    N24    O30       2.08619  1_655   S
    Zr16   O30       2.73772  1_554   S
    N31    O32       2.20332      .   S
    Zr6    O32       3.00273      .   S
    N31    O33       2.20209      .   S
    Zr12   O33       3.00174      .   S
    N31    O34       3.07264      .   S
    Zr10   O34       4.23015      .   S
    N31    O35       2.08610      .   S
    Zr18   O35       2.73751      .   S
    N31    O36       3.07197      .   S
    Zr0    O36       4.22862  1_455   S
    N31    O37       2.09259      .   S
    Zr22   O37       2.75100      .   S
    N38    O39       2.20326      .   S
    Zr4    O39       3.00265      .   S
    N38    O40       2.09264      .   S
    Zr19   O40       2.75108      .   S
    N38    O41       2.08612      .   S
    Zr23   O41       2.73759      .   S
    N38    O42       3.07189      .   S
    Zr2    O42       4.22847      .   S
    N38    O43       2.20207      .   S
    Zr10   O43       3.00166      .   S
    N38    O44       3.07258      .   S
    Zr12   O44       4.23009      .   S
    N45    O46       2.20327      .   S
    Zr5    O46       3.00270      .   S
    N45    O47       3.07262      .   S
    Zr13   O47       4.23002      .   S
    N45    O48       2.09273      .   S
    Zr18   O48       2.75137  1_554   S
    N45    O49       3.07189      .   S
    Zr3    O49       4.22847      .   S
    N45    O50       2.08612      .   S
    Zr22   O50       2.73765  1_554   S
    N45    O51       2.20207      .   S
    Zr11   O51       3.00171      .   S
    N52    O53       2.20327  1_565   S
    Zr0    O53       3.00291      .   S
    N52    O54       2.20224      .   S
    Zr10   O54       3.00194      .   S
    N52    O55       3.07274  1_465   S
    Zr12   O55       4.23018      .   S
    N52    O56       2.08618  1_465   S
    Zr20   O56       2.73751  1_565   S
    N52    O57       2.09264      .   S
    Zr16   O57       2.75119      .   S
    N52    O58       3.07200      .   S
    Zr6    O58       4.22862      .   S
    N59    O60       3.07305  1_565   S
    Zr8    O60       4.23062      .   S
    N59    O61       3.07191      .   S
    Zr2    O61       4.22869  1_455   S
    N59    O62       2.20372  1_565   S
    Zr4    O62       3.00313      .   S
    N59    O63       2.20223      .   S
    Zr14   O63       3.00207      .   S
    N59    O64       2.09208      .   S
    Zr20   O64       2.75045      .   S
    N59    O65       2.08610  1_565   S
    Zr16   O65       2.73731  1_565   S
    N66    O67       2.09256      .   S
    Zr17   O67       2.75100      .   S
    N66    O68       2.20224      .   S
    Zr11   O68       3.00190      .   S
    N66    O69       3.07279  1_465   S
    Zr13   O69       4.23024      .   S
    N66    O70       3.07199      .   S
    Zr7    O70       4.22861      .   S
    N66    O71       2.20341  1_565   S
    Zr1    O71       3.00280      .   S
    N66    O72       2.08620  1_465   S
    Zr21   O72       2.73753  1_565   S
    N73    O74       2.20339      .   S
    Zr2    O74       3.00263  1_455   S
    N73    O75       3.07203  1_565   S
    Zr4    O75       4.22860      .   S
    N73    O76       2.08619  1_655   S
    Zr17   O76       2.73769      .   S
    N73    O77       2.09282  1_565   S
    Zr21   O77       2.75125  1_565   S
    N73    O78       2.20221  1_565   S
    Zr12   O78       3.00181      .   S
    N73    O79       3.07263  1_655   S
    Zr10   O79       4.23006      .   S
    N80    O81       2.09262      .   S
    Zr18   O81       2.75114      .   S
    N80    O82       2.20331      .   S
    Zr2    O82       3.00268      .   S
    N80    O83       2.08616  1_455   S
    Zr22   O83       2.73751      .   S
    N80    O84       2.20214      .   S
    Zr8    O84       3.00182      .   S
    N80    O85       3.07268  1_455   S
    Zr14   O85       4.23011      .   S
    N80    O86       3.07192      .   S
    Zr4    O86       4.22854      .   S
    N87    O88       3.07192      .   S
    Zr5    O88       4.22854      .   S
    N87    O89       2.09259      .   S
    Zr19   O89       2.75099      .   S
    N87    O90       2.08619  1_455   S
    Zr23   O90       2.73756      .   S
    N87    O91       2.20330      .   S
    Zr3    O91       3.00268      .   S
    N87    O92       2.20214      .   S
    Zr9    O92       3.00179      .   S
    N87    O93       3.07270  1_455   S
    Zr15   O93       4.23015      .   S
    N94    O95       2.08615  1_565   S
    Zr17   O95       2.73755  1_565   S
    N94    O96       3.07267  1_565   S
    Zr9    O96       4.23012      .   S
    N94    O97       2.20218      .   S
    Zr15   O97       3.00183      .   S
    N94    O98       2.09259      .   S
    Zr21   O98       2.75102      .   S
    N94    O99       2.20327  1_565   S
    Zr5    O99       3.00287      .   S
    N94    O100      3.07200      .   S
    Zr3    O100      4.22870  1_455   S
    N101   O102      2.20329      .   S
    Zr1    O102      3.00268  1_455   S
    N101   O103      3.07263  1_655   S
    Zr9    O103      4.23012      .   S
    N101   O104      2.20215      .   S
    Zr15   O104      3.00163      .   S
    N101   O105      2.09251      .   S
    Zr22   O105      2.75182  1_554   S
    N101   O106      3.07193      .   S
    Zr7    O106      4.22853      .   S
    N101   O107      2.08619  1_655   S
    Zr18   O107      2.73768  1_554   S
    N108   O109      2.20213      .   S
    Zr14   O109      3.00177      .   S
    N108   O110      2.09265      .   S
    Zr23   O110      2.75110      .   S
    N108   O111      3.07193      .   S
    Zr6    O111      4.22852      .   S
    N108   O112      3.07265  1_655   S
    Zr8    O112      4.23009      .   S
    N108   O113      2.20330      .   S
    Zr0    O113      3.00268  1_455   S
    N108   O114      2.08618  1_655   S
    Zr19   O114      2.73760      .   S
    N115   O116      3.07193      .   S
    Zr1    O116      4.22863  1_455   S
    N115   O117      2.20209      .   S
    Zr13   O117      3.00172      .   S
    N115   O118      3.07260      .   S
    Zr11   O118      4.23005      .   S
    N115   O119      2.08613      .   S
    Zr19   O119      2.73757      .   S
    N115   O120      2.09259      .   S
    Zr23   O120      2.75098      .   S
    N115   O121      2.20317      .   S
    Zr7    O121      3.00276      .   S
    N122   O123      2.08612      .   S
    Zr20   O123      2.73778  1_554   S
    N122   O124      2.09278  1_565   S
    Zr16   O124      2.75139  1_564   S
    N122   O125      3.07264      .   S
    Zr15   O125      4.23009      .   S
    N122   O126      2.20216  1_565   S
    Zr9    O126      3.00180      .   S
    N122   O127      3.07196  1_565   S
    Zr1    O127      4.22854      .   S
    N122   O128      2.20335      .   S
    Zr7    O128      3.00278      .   S
    N129   O130      3.07195  1_565   S
    Zr0    O130      4.22854      .   S
    N129   O131      2.20337      .   S
    Zr6    O131      3.00277      .   S
    N129   O132      2.20217  1_565   S
    Zr8    O132      3.00179      .   S
    N129   O133      2.08613      .   S
    Zr21   O133      2.73763      .   S
    N129   O134      3.07267      .   S
    Zr14   O134      4.23017      .   S
    N129   O135      2.09264  1_565   S
    Zr17   O135      2.75103  1_565   S
