# CIF file generated by openbabel 2.4.90, see http://openbabel.sf.net
data_I
_chemical_name_common ''
_cell_length_a 15.885
_cell_length_b 18.338
_cell_length_c 19.602
_cell_angle_alpha 92.926
_cell_angle_beta 114.074
_cell_angle_gamma 82.713
_space_group_name_H-M_alt 'P 1'
_space_group_name_Hall 'P 1'
loop_
    _symmetry_equiv_pos_as_xyz
    x,y,z
loop_
    _atom_site_label
    _atom_site_type_symbol
    _atom_site_fract_x
    _atom_site_fract_y
    _atom_site_fract_z
    _atom_site_occupancy
    C0      C    0.00004   0.24998   0.25000   1.000
    C1      C    0.00005   0.24998   0.74998   1.000
    C2      C    0.00005   0.74996   0.25000   1.000
    C3      C    0.00005   0.74996   0.74998   1.000
    C4      C    0.50004   0.24998   0.25000   1.000
    C5      C    0.50004   0.24998   0.74998   1.000
    C6      C    0.50004   0.74996   0.25000   1.000
    C7      C    0.50004   0.74996   0.74998   1.000
    C8      C    0.25004   0.24997   0.25000   1.000
    C9      C    0.25004   0.24997   0.74998   1.000
    C10     C    0.25004   0.74996   0.25000   1.000
    C11     C    0.25005   0.74996   0.74998   1.000
    C12     C    0.75003   0.24998   0.24999   1.000
    C13     C    0.75003   0.24998   0.74998   1.000
    C14     C    0.75003   0.74996   0.24999   1.000
    C15     C    0.75004   0.74996   0.74998   1.000
    C16     C    0.25004   0.99998   0.00000   1.000
    C17     C    0.25004   0.99998   0.49999   1.000
    C18     C    0.25005   0.49996   0.00000   1.000
    C19     C    0.25004   0.49997   0.49999   1.000
    C20     C    0.75004   0.99998   0.00000   1.000
    C21     C    0.75003   0.99998   0.49999   1.000
    C22     C    0.75004   0.49997   0.00000   1.000
    C23     C    0.75004   0.49997   0.49999   1.000
    C24     C    0.02785   0.11661   0.12018   1.000
    C25     C    0.02786   0.11661   0.62017   1.000
    C26     C    0.02786   0.61660   0.12010   1.000
    C27     C    0.02786   0.61660   0.62017   1.000
    C28     C    0.52785   0.11661   0.12010   1.000
    C29     C    0.52785   0.11661   0.62017   1.000
    C30     C    0.52785   0.61660   0.12010   1.000
    C31     C    0.52785   0.61660   0.62017   1.000
    C32     C    0.46479   0.04724   0.06275   1.000
    C33     C    0.46479   0.04724   0.56273   1.000
    C34     C    0.46479   0.54723   0.06275   1.000
    C35     C    0.46479   0.54723   0.56273   1.000
    C36     C    0.96478   0.04724   0.06270   1.000
    C37     C    0.96478   0.04724   0.56273   1.000
    C38     C    0.96478   0.54723   0.06270   1.000
    C39     C    0.96478   0.54723   0.56273   1.000
    C40     C    0.05553   0.04262   0.23417   1.000
    C41     C    0.05554   0.04262   0.73416   1.000
    C42     C    0.05553   0.54261   0.23417   1.000
    C43     C    0.05554   0.54260   0.73416   1.000
    C44     C    0.55553   0.04262   0.23417   1.000
    C45     C    0.55554   0.04262   0.73416   1.000
    C46     C    0.55553   0.54261   0.23417   1.000
    C47     C    0.55554   0.54260   0.73416   1.000
    C48     C    0.00156   0.47042   0.17614   1.000
    C49     C    0.00157   0.47042   0.67613   1.000
    C50     C    0.00157   0.97041   0.17614   1.000
    C51     C    0.00157   0.97040   0.67613   1.000
    C52     C    0.50156   0.47042   0.17615   1.000
    C53     C    0.50157   0.47042   0.67613   1.000
    C54     C    0.50157   0.97040   0.17615   1.000
    C55     C    0.50157   0.97040   0.67613   1.000
    C56     C    0.09143   0.38355   0.11970   1.000
    C57     C    0.09144   0.38355   0.61960   1.000
    C58     C    0.09143   0.88353   0.11970   1.000
    C59     C    0.09144   0.88353   0.61960   1.000
    C60     C    0.59143   0.38355   0.11970   1.000
    C61     C    0.59143   0.38355   0.61968   1.000
    C62     C    0.59143   0.88354   0.11900   1.000
    C63     C    0.59143   0.88354   0.61968   1.000
    C64     C    0.09702   0.45327   0.06269   1.000
    C65     C    0.09702   0.45327   0.56267   1.000
    C66     C    0.09702   0.95326   0.06269   1.000
    C67     C    0.09703   0.95326   0.56267   1.000
    C68     C    0.59702   0.45328   0.06269   1.000
    C69     C    0.59702   0.45328   0.56267   1.000
    C70     C    0.59702   0.95327   0.06269   1.000
    C71     C    0.59702   0.95326   0.56267   1.000
    C72     C    0.17845   0.45685   0.23412   1.000
    C73     C    0.17845   0.45685   0.73411   1.000
    C74     C    0.17845   0.95684   0.23412   1.000
    C75     C    0.17846   0.95683   0.73411   1.000
    C76     C    0.67845   0.45685   0.23412   1.000
    C77     C    0.67845   0.45685   0.73410   1.000
    C78     C    0.67845   0.95684   0.23412   1.000
    C79     C    0.67846   0.95684   0.73410   1.000
    C80     C    0.17434   0.02939   0.17650   1.000
    C81     C    0.17434   0.02939   0.67640   1.000
    C82     C    0.17434   0.52938   0.17650   1.000
    C83     C    0.17434   0.52938   0.67648   1.000
    C84     C    0.67433   0.02940   0.17650   1.000
    C85     C    0.67434   0.02939   0.67648   1.000
    C86     C    0.67434   0.52938   0.17650   1.000
    C87     C    0.67434   0.52938   0.67648   1.000
    C88     C    0.47222   0.38335   0.37980   1.000
    C89     C    0.47222   0.38335   0.87979   1.000
    C90     C    0.47222   0.88333   0.37980   1.000
    C91     C    0.47223   0.88333   0.87979   1.000
    C92     C    0.97221   0.38335   0.37980   1.000
    C93     C    0.97222   0.38335   0.87979   1.000
    C94     C    0.97222   0.88333   0.37980   1.000
    C95     C    0.97222   0.88333   0.87979   1.000
    C96     C    0.03529   0.45271   0.43725   1.000
    C97     C    0.03529   0.45271   0.93723   1.000
    C98     C    0.03529   0.95270   0.43720   1.000
    C99     C    0.03530   0.95270   0.93723   1.000
    C100    C    0.53528   0.45271   0.43724   1.000
    C101    C    0.53528   0.45271   0.93723   1.000
    C102    C    0.53528   0.95270   0.43724   1.000
    C103    C    0.53529   0.95270   0.93723   1.000
    C104    C    0.44454   0.45734   0.26582   1.000
    C105    C    0.44455   0.45734   0.76580   1.000
    C106    C    0.44454   0.95733   0.26582   1.000
    C107    C    0.44455   0.95733   0.76580   1.000
    C108    C    0.94454   0.45734   0.26582   1.000
    C109    C    0.94455   0.45734   0.76580   1.000
    C110    C    0.94454   0.95733   0.26582   1.000
    C111    C    0.94455   0.95733   0.76580   1.000
    C112    C    0.49851   0.02954   0.32385   1.000
    C113    C    0.49852   0.02954   0.82383   1.000
    C114    C    0.49851   0.52953   0.32385   1.000
    C115    C    0.49852   0.52953   0.82380   1.000
    C116    C    0.99851   0.02954   0.32385   1.000
    C117    C    0.99852   0.02954   0.82384   1.000
    C118    C    0.99851   0.52952   0.32385   1.000
    C119    C    0.99852   0.52952   0.82384   1.000
    C120    C    0.40865   0.11641   0.38030   1.000
    C121    C    0.40865   0.11640   0.88020   1.000
    C122    C    0.40865   0.61639   0.38030   1.000
    C123    C    0.40865   0.61639   0.88028   1.000
    C124    C    0.90864   0.11641   0.38000   1.000
    C125    C    0.90864   0.11641   0.88028   1.000
    C126    C    0.90864   0.61640   0.38029   1.000
    C127    C    0.90865   0.61640   0.88028   1.000
    C128    C    0.40305   0.04668   0.43730   1.000
    C129    C    0.40306   0.04667   0.93729   1.000
    C130    C    0.40306   0.54666   0.43730   1.000
    C131    C    0.40306   0.54666   0.93729   1.000
    C132    C    0.90305   0.04668   0.43730   1.000
    C133    C    0.90306   0.04668   0.93729   1.000
    C134    C    0.90305   0.54667   0.43730   1.000
    C135    C    0.90306   0.54667   0.93729   1.000
    C136    C    0.32163   0.04311   0.26587   1.000
    C137    C    0.32163   0.04311   0.76586   1.000
    C138    C    0.32163   0.54310   0.26587   1.000
    C139    C    0.32163   0.54310   0.76586   1.000
    C140    C    0.82163   0.04311   0.26587   1.000
    C141    C    0.82163   0.04311   0.76585   1.000
    C142    C    0.82163   0.54310   0.26587   1.000
    C143    C    0.82163   0.54310   0.76585   1.000
    C144    C    0.32574   0.47056   0.32349   1.000
    C145    C    0.32574   0.47056   0.82347   1.000
    C146    C    0.32574   0.97055   0.32349   1.000
    C147    C    0.32574   0.97055   0.82347   1.000
    C148    C    0.82573   0.47057   0.32349   1.000
    C149    C    0.82574   0.47057   0.82347   1.000
    C150    C    0.82574   0.97055   0.32349   1.000
    C151    C    0.82574   0.97055   0.82347   1.000
    C152    C    0.40102   0.10534   0.12873   1.000
    C153    C    0.40103   0.10534   0.62872   1.000
    C154    C    0.40102   0.60533   0.12873   1.000
    C155    C    0.40103   0.60533   0.62872   1.000
    C156    C    0.90101   0.10534   0.12873   1.000
    C157    C    0.90101   0.10534   0.62871   1.000
    C158    C    0.90101   0.60533   0.12873   1.000
    C159    C    0.90102   0.60533   0.62871   1.000
    C160    C    0.48584   0.07267   0.11840   1.000
    C161    C    0.48584   0.07267   0.61845   1.000
    C162    C    0.48584   0.57266   0.11840   1.000
    C163    C    0.48584   0.57265   0.61845   1.000
    C164    C    0.98582   0.07267   0.11846   1.000
    C165    C    0.98583   0.07267   0.61845   1.000
    C166    C    0.98583   0.57266   0.11846   1.000
    C167    C    0.98583   0.57265   0.61845   1.000
    C168    C    0.04298   0.01553   0.18014   1.000
    C169    C    0.04298   0.01553   0.68012   1.000
    C170    C    0.04298   0.51552   0.18014   1.000
    C171    C    0.04298   0.51552   0.68012   1.000
    C172    C    0.54298   0.01553   0.18014   1.000
    C173    C    0.54298   0.01553   0.68012   1.000
    C174    C    0.54298   0.51552   0.18014   1.000
    C175    C    0.54298   0.51552   0.68012   1.000
    C176    C    0.22702   0.39475   0.12859   1.000
    C177    C    0.22702   0.39475   0.62858   1.000
    C178    C    0.22702   0.89474   0.12859   1.000
    C179    C    0.22702   0.89474   0.62858   1.000
    C180    C    0.72701   0.39475   0.12859   1.000
    C181    C    0.72702   0.39475   0.62858   1.000
    C182    C    0.72701   0.89474   0.12859   1.000
    C183    C    0.72702   0.89474   0.62858   1.000
    C184    C    0.13187   0.42750   0.11829   1.000
    C185    C    0.13187   0.42750   0.61820   1.000
    C186    C    0.13187   0.92749   0.11829   1.000
    C187    C    0.13187   0.92749   0.61820   1.000
    C188    C    0.63186   0.42751   0.11829   1.000
    C189    C    0.63187   0.42750   0.61827   1.000
    C190    C    0.63187   0.92749   0.11829   1.000
    C191    C    0.63187   0.92749   0.61827   1.000
    C192    C    0.13678   0.48426   0.18019   1.000
    C193    C    0.13678   0.48426   0.68017   1.000
    C194    C    0.13678   0.98425   0.18019   1.000
    C195    C    0.13678   0.98425   0.68017   1.000
    C196    C    0.63678   0.48426   0.18018   1.000
    C197    C    0.63678   0.48426   0.68017   1.000
    C198    C    0.63678   0.98425   0.18018   1.000
    C199    C    0.63678   0.98425   0.68017   1.000
    C200    C    0.09906   0.39461   0.37126   1.000
    C201    C    0.09906   0.39461   0.87125   1.000
    C202    C    0.09906   0.89460   0.37126   1.000
    C203    C    0.09907   0.89460   0.87125   1.000
    C204    C    0.59905   0.39461   0.37126   1.000
    C205    C    0.59905   0.39461   0.87125   1.000
    C206    C    0.59905   0.89460   0.37126   1.000
    C207    C    0.59906   0.89460   0.87125   1.000
    C208    C    0.01424   0.42729   0.38153   1.000
    C209    C    0.01425   0.42729   0.88151   1.000
    C210    C    0.01425   0.92727   0.38153   1.000
    C211    C    0.01425   0.92727   0.88151   1.000
    C212    C    0.51423   0.42729   0.38150   1.000
    C213    C    0.51424   0.42729   0.88151   1.000
    C214    C    0.51424   0.92727   0.38150   1.000
    C215    C    0.51424   0.92727   0.88151   1.000
    C216    C    0.45710   0.48443   0.31980   1.000
    C217    C    0.45710   0.48443   0.81984   1.000
    C218    C    0.45710   0.98441   0.31985   1.000
    C219    C    0.45710   0.98441   0.81984   1.000
    C220    C    0.95710   0.48443   0.31986   1.000
    C221    C    0.95710   0.48443   0.81984   1.000
    C222    C    0.95710   0.98441   0.31980   1.000
    C223    C    0.95710   0.98441   0.81984   1.000
    C224    C    0.27306   0.10520   0.37140   1.000
    C225    C    0.27306   0.10520   0.87139   1.000
    C226    C    0.27306   0.60519   0.37140   1.000
    C227    C    0.27307   0.60519   0.87139   1.000
    C228    C    0.77306   0.10521   0.37140   1.000
    C229    C    0.77306   0.10520   0.87138   1.000
    C230    C    0.77306   0.60519   0.37140   1.000
    C231    C    0.77306   0.60519   0.87138   1.000
    C232    C    0.36821   0.07245   0.38170   1.000
    C233    C    0.36821   0.07245   0.88169   1.000
    C234    C    0.36821   0.57244   0.38170   1.000
    C235    C    0.36821   0.57244   0.88169   1.000
    C236    C    0.86820   0.07245   0.38170   1.000
    C237    C    0.86821   0.07245   0.88169   1.000
    C238    C    0.86821   0.57244   0.38170   1.000
    C239    C    0.86821   0.57244   0.88169   1.000
    C240    C    0.36330   0.01570   0.31981   1.000
    C241    C    0.36330   0.01569   0.81979   1.000
    C242    C    0.36330   0.51568   0.31981   1.000
    C243    C    0.36330   0.51568   0.81979   1.000
    C244    C    0.86329   0.01570   0.31980   1.000
    C245    C    0.86330   0.01570   0.81979   1.000
    C246    C    0.86330   0.51569   0.31980   1.000
    C247    C    0.86330   0.51568   0.81979   1.000
    C248    C    0.30977   0.16461   0.17436   1.000
    C249    C    0.30977   0.16461   0.67435   1.000
    C250    C    0.30977   0.66460   0.17436   1.000
    C251    C    0.30977   0.66460   0.67435   1.000
    C252    C    0.80976   0.16462   0.17436   1.000
    C253    C    0.80976   0.16462   0.67435   1.000
    C254    C    0.80976   0.66460   0.17436   1.000
    C255    C    0.80976   0.66460   0.67435   1.000
    C256    C    0.25975   0.12039   0.12292   1.000
    C257    C    0.25975   0.12040   0.62291   1.000
    C258    C    0.25975   0.62038   0.12292   1.000
    C259    C    0.25975   0.62038   0.62291   1.000
    C260    C    0.75974   0.12040   0.12292   1.000
    C261    C    0.75974   0.12040   0.62290   1.000
    C262    C    0.75974   0.62039   0.12292   1.000
    C263    C    0.75974   0.62039   0.62290   1.000
    C264    C    0.31604   0.08272   0.09342   1.000
    C265    C    0.31604   0.08272   0.59341   1.000
    C266    C    0.31604   0.58270   0.09342   1.000
    C267    C    0.31604   0.58270   0.59341   1.000
    C268    C    0.81603   0.08272   0.09342   1.000
    C269    C    0.81603   0.08272   0.59340   1.000
    C270    C    0.81603   0.58271   0.09340   1.000
    C271    C    0.81603   0.58271   0.59340   1.000
    C272    C    0.39842   0.15670   0.17946   1.000
    C273    C    0.39842   0.15670   0.67940   1.000
    C274    C    0.39842   0.65668   0.17946   1.000
    C275    C    0.39842   0.65668   0.67940   1.000
    C276    C    0.89841   0.15670   0.17940   1.000
    C277    C    0.89841   0.15670   0.67944   1.000
    C278    C    0.89841   0.65669   0.17946   1.000
    C279    C    0.89841   0.65669   0.67944   1.000
    C280    C    0.36420   0.33533   0.17438   1.000
    C281    C    0.36420   0.33533   0.67436   1.000
    C282    C    0.36420   0.83531   0.17438   1.000
    C283    C    0.36420   0.83531   0.67436   1.000
    C284    C    0.86419   0.33533   0.17430   1.000
    C285    C    0.86419   0.33533   0.67436   1.000
    C286    C    0.86419   0.83531   0.17437   1.000
    C287    C    0.86420   0.83531   0.67436   1.000
    C288    C    0.36248   0.37953   0.12290   1.000
    C289    C    0.36249   0.37953   0.62288   1.000
    C290    C    0.36249   0.87952   0.12290   1.000
    C291    C    0.36249   0.87952   0.62288   1.000
    C292    C    0.86248   0.37953   0.12289   1.000
    C293    C    0.86248   0.37954   0.62288   1.000
    C294    C    0.86248   0.87952   0.12200   1.000
    C295    C    0.86249   0.87952   0.62288   1.000
    C296    C    0.27653   0.41732   0.09331   1.000
    C297    C    0.27654   0.41732   0.59329   1.000
    C298    C    0.27653   0.91731   0.09331   1.000
    C299    C    0.27654   0.91731   0.59329   1.000
    C300    C    0.77653   0.41732   0.09330   1.000
    C301    C    0.77653   0.41732   0.59329   1.000
    C302    C    0.77653   0.91731   0.09330   1.000
    C303    C    0.77653   0.91731   0.59329   1.000
    C304    C    0.28065   0.34336   0.17941   1.000
    C305    C    0.28065   0.34336   0.67940   1.000
    C306    C    0.28065   0.84335   0.17940   1.000
    C307    C    0.28065   0.84335   0.67940   1.000
    C308    C    0.78064   0.34337   0.17941   1.000
    C309    C    0.78065   0.34336   0.67940   1.000
    C310    C    0.78065   0.84335   0.17941   1.000
    C311    C    0.78065   0.84335   0.67940   1.000
    C312    C    0.19031   0.33534   0.32563   1.000
    C313    C    0.19032   0.33534   0.82562   1.000
    C314    C    0.19031   0.83532   0.32563   1.000
    C315    C    0.19032   0.83532   0.82562   1.000
    C316    C    0.69030   0.33534   0.32563   1.000
    C317    C    0.69031   0.33534   0.82560   1.000
    C318    C    0.69030   0.83533   0.32563   1.000
    C319    C    0.69031   0.83533   0.82561   1.000
    C320    C    0.24033   0.37956   0.37707   1.000
    C321    C    0.24034   0.37956   0.87706   1.000
    C322    C    0.24034   0.87954   0.37707   1.000
    C323    C    0.24034   0.87954   0.87706   1.000
    C324    C    0.74032   0.37956   0.37707   1.000
    C325    C    0.74033   0.37956   0.87705   1.000
    C326    C    0.74032   0.87955   0.37707   1.000
    C327    C    0.74033   0.87955   0.87705   1.000
    C328    C    0.18405   0.41723   0.40657   1.000
    C329    C    0.18405   0.41723   0.90656   1.000
    C330    C    0.18405   0.91722   0.40657   1.000
    C331    C    0.18405   0.91722   0.90656   1.000
    C332    C    0.68403   0.41724   0.40657   1.000
    C333    C    0.68404   0.41724   0.90656   1.000
    C334    C    0.68404   0.91722   0.40657   1.000
    C335    C    0.68404   0.91723   0.90650   1.000
    C336    C    0.10166   0.34325   0.32054   1.000
    C337    C    0.10167   0.34325   0.82052   1.000
    C338    C    0.10167   0.84324   0.32050   1.000
    C339    C    0.10167   0.84324   0.82052   1.000
    C340    C    0.60165   0.34325   0.32053   1.000
    C341    C    0.60166   0.34325   0.82052   1.000
    C342    C    0.60166   0.84324   0.32053   1.000
    C343    C    0.60166   0.84324   0.82052   1.000
    C344    C    0.13588   0.16462   0.32562   1.000
    C345    C    0.13588   0.16462   0.82561   1.000
    C346    C    0.13588   0.66461   0.32562   1.000
    C347    C    0.13589   0.66461   0.82561   1.000
    C348    C    0.63587   0.16463   0.32562   1.000
    C349    C    0.63588   0.16463   0.82560   1.000
    C350    C    0.63588   0.66461   0.32562   1.000
    C351    C    0.63588   0.66461   0.82560   1.000
    C352    C    0.13759   0.12042   0.37710   1.000
    C353    C    0.13760   0.12042   0.87709   1.000
    C354    C    0.13760   0.62040   0.37710   1.000
    C355    C    0.13760   0.62041   0.87709   1.000
    C356    C    0.63759   0.12042   0.37710   1.000
    C357    C    0.63760   0.12042   0.87709   1.000
    C358    C    0.63759   0.62040   0.37710   1.000
    C359    C    0.63760   0.62041   0.87709   1.000
    C360    C    0.22355   0.08263   0.40669   1.000
    C361    C    0.22355   0.08263   0.90668   1.000
    C362    C    0.22355   0.58262   0.40669   1.000
    C363    C    0.22355   0.58262   0.90668   1.000
    C364    C    0.72354   0.08263   0.40669   1.000
    C365    C    0.72355   0.08263   0.90660   1.000
    C366    C    0.72355   0.58262   0.40669   1.000
    C367    C    0.72355   0.58262   0.90660   1.000
    C368    C    0.21943   0.15659   0.32058   1.000
    C369    C    0.21943   0.15659   0.82057   1.000
    C370    C    0.21943   0.65657   0.32058   1.000
    C371    C    0.21943   0.65657   0.82057   1.000
    C372    C    0.71942   0.15659   0.32058   1.000
    C373    C    0.71942   0.15659   0.82056   1.000
    C374    C    0.71942   0.65658   0.32058   1.000
    C375    C    0.71943   0.65658   0.82050   1.000
    C376    C    0.07739   0.25007   0.15529   1.000
    C377    C    0.07739   0.25007   0.65520   1.000
    C378    C    0.07739   0.75006   0.15529   1.000
    C379    C    0.07739   0.75006   0.65527   1.000
    C380    C    0.57738   0.25007   0.15529   1.000
    C381    C    0.57738   0.25007   0.65527   1.000
    C382    C    0.57738   0.75006   0.15529   1.000
    C383    C    0.57738   0.75006   0.65527   1.000
    C384    C    0.42269   0.24988   0.34471   1.000
    C385    C    0.42270   0.24988   0.84469   1.000
    C386    C    0.42269   0.74987   0.34471   1.000
    C387    C    0.42270   0.74987   0.84469   1.000
    C388    C    0.92268   0.24988   0.34470   1.000
    C389    C    0.92269   0.24988   0.84469   1.000
    C390    C    0.92268   0.74987   0.34470   1.000
    C391    C    0.92269   0.74987   0.84469   1.000
    O392    O    0.11444   0.44039   0.09049   1.000
    O393    O    0.11445   0.94037   0.09049   1.000
    O394    O    0.61444   0.94038   0.09049   1.000
    O395    O    0.61444   0.44039   0.09049   1.000
    O396    O    0.97530   0.55994   0.09058   1.000
    O397    O    0.97530   0.05995   0.09058   1.000
    O398    O    0.47531   0.05995   0.09057   1.000
    O399    O    0.47531   0.55994   0.09057   1.000
    O400    O    0.81951   0.89842   0.10765   1.000
    O401    O    0.75177   0.90602   0.11094   1.000
    O402    O    0.76328   0.95865   0.04665   1.000
    O403    O    0.81950   0.39843   0.10809   1.000
    O404    O    0.75177   0.40604   0.11094   1.000
    O405    O    0.76328   0.45864   0.04665   1.000
    O406    O    0.31951   0.39843   0.10810   1.000
    O407    O    0.25177   0.40604   0.11095   1.000
    O408    O    0.26329   0.45864   0.04665   1.000
    O409    O    0.31951   0.89842   0.10810   1.000
    O410    O    0.25178   0.90602   0.11095   1.000
    O411    O    0.26329   0.95864   0.04665   1.000
    O412    O    0.78788   0.60155   0.10816   1.000
    O413    O    0.85852   0.59402   0.11106   1.000
    O414    O    0.78303   0.54134   0.04670   1.000
    O415    O    0.78788   0.10156   0.10817   1.000
    O416    O    0.85852   0.09403   0.11107   1.000
    O417    O    0.78303   0.04135   0.04671   1.000
    O418    O    0.28789   0.60154   0.10817   1.000
    O419    O    0.35853   0.59402   0.11107   1.000
    O420    O    0.28304   0.54133   0.04671   1.000
    O421    O    0.28789   0.10156   0.10817   1.000
    O422    O    0.35853   0.09403   0.11107   1.000
    O423    O    0.28304   0.04135   0.04671   1.000
    O424    O    0.61165   0.40553   0.11899   1.000
    O425    O    0.67944   0.41113   0.12344   1.000
    O426    O    0.63432   0.45588   0.14923   1.000
    O427    O    0.11165   0.40552   0.11899   1.000
    O428    O    0.17944   0.41113   0.12344   1.000
    O429    O    0.13432   0.45588   0.14924   1.000
    O430    O    0.11165   0.90551   0.11899   1.000
    O431    O    0.17944   0.91111   0.12344   1.000
    O432    O    0.13433   0.95587   0.14924   1.000
    O433    O    0.61165   0.90552   0.11864   1.000
    O434    O    0.67944   0.91112   0.12344   1.000
    O435    O    0.63432   0.95587   0.14923   1.000
    O436    O    0.50684   0.59463   0.11925   1.000
    O437    O    0.44343   0.58899   0.12356   1.000
    O438    O    0.51441   0.54409   0.14927   1.000
    O439    O    0.50684   0.09464   0.11925   1.000
    O440    O    0.44343   0.08901   0.12356   1.000
    O441    O    0.51441   0.04410   0.14927   1.000
    O442    O    0.00684   0.59463   0.11928   1.000
    O443    O    0.94342   0.58899   0.12359   1.000
    O444    O    0.01440   0.54409   0.14930   1.000
    O445    O    0.00684   0.09464   0.11932   1.000
    O446    O    0.94342   0.08901   0.12359   1.000
    O447    O    0.01440   0.04410   0.14930   1.000
    O448    O    0.86334   0.85742   0.14818   1.000
    O449    O    0.86334   0.35743   0.14859   1.000
    O450    O    0.36334   0.85742   0.14864   1.000
    O451    O    0.36334   0.35743   0.14864   1.000
    O452    O    0.28476   0.14250   0.14864   1.000
    O453    O    0.28476   0.64249   0.14864   1.000
    O454    O    0.78475   0.14251   0.14864   1.000
    O455    O    0.78475   0.64250   0.14864   1.000
    O456    O    0.75383   0.86905   0.15400   1.000
    O457    O    0.75383   0.36906   0.15400   1.000
    O458    O    0.25383   0.86904   0.15399   1.000
    O459    O    0.25383   0.36906   0.15400   1.000
    O460    O    0.39972   0.13102   0.15409   1.000
    O461    O    0.89971   0.63101   0.15409   1.000
    O462    O    0.89971   0.13102   0.15406   1.000
    O463    O    0.39972   0.63101   0.15409   1.000
    O464    O    0.66371   0.75001   0.20264   1.000
    O465    O    0.66370   0.25003   0.20264   1.000
    O466    O    0.16372   0.75001   0.20264   1.000
    O467    O    0.16371   0.25002   0.20264   1.000
    O468    O    0.82242   0.33935   0.17685   1.000
    O469    O    0.93212   0.29265   0.21215   1.000
    O470    O    0.85408   0.66065   0.17691   1.000
    O471    O    0.77989   0.70728   0.21217   1.000
    O472    O    0.85408   0.16066   0.17688   1.000
    O473    O    0.77989   0.20730   0.21217   1.000
    O474    O    0.35409   0.66064   0.17691   1.000
    O475    O    0.27991   0.70728   0.21218   1.000
    O476    O    0.35409   0.16066   0.17691   1.000
    O477    O    0.27990   0.20729   0.21218   1.000
    O478    O    0.82242   0.83933   0.17689   1.000
    O479    O    0.93212   0.79264   0.21218   1.000
    O480    O    0.32242   0.83933   0.17689   1.000
    O481    O    0.43212   0.79264   0.21219   1.000
    O482    O    0.32242   0.33935   0.17689   1.000
    O483    O    0.43212   0.29265   0.21219   1.000
    O484    O    0.02227   0.49297   0.17814   1.000
    O485    O    0.02227   0.99297   0.17814   1.000
    O486    O    0.52227   0.99297   0.17814   1.000
    O487    O    0.52227   0.49297   0.17814   1.000
    O488    O    0.65556   0.00682   0.17834   1.000
    O489    O    0.15556   0.50682   0.17834   1.000
    O490    O    0.15556   0.00682   0.17834   1.000
    O491    O    0.65556   0.50682   0.17834   1.000
    O492    O    0.94922   0.20334   0.21470   1.000
    O493    O    0.26535   0.79666   0.21470   1.000
    O494    O    0.76534   0.29667   0.21470   1.000
    O495    O    0.76534   0.79666   0.21470   1.000
    O496    O    0.26534   0.29667   0.21470   1.000
    O497    O    0.44923   0.20334   0.21473   1.000
    O498    O    0.94923   0.70332   0.21473   1.000
    O499    O    0.44923   0.70332   0.21473   1.000
    O500    O    0.58988   0.49989   0.18016   1.000
    O501    O    0.54926   0.52906   0.20715   1.000
    O502    O    0.58988   0.99989   0.18016   1.000
    O503    O    0.54925   0.02908   0.20715   1.000
    O504    O    0.08988   0.49989   0.18016   1.000
    O505    O    0.04926   0.52906   0.20715   1.000
    O506    O    0.08988   0.99989   0.18016   1.000
    O507    O    0.04926   0.02908   0.20715   1.000
    O508    O    0.65762   0.97054   0.20715   1.000
    O509    O    0.65761   0.47056   0.20715   1.000
    O510    O    0.15762   0.97054   0.20715   1.000
    O511    O    0.15762   0.47056   0.20715   1.000
    O512    O    0.73472   0.20328   0.28528   1.000
    O513    O    0.72017   0.29266   0.28781   1.000
    O514    O    0.83636   0.24993   0.29734   1.000
    O515    O    0.73473   0.70327   0.28528   1.000
    O516    O    0.72017   0.79265   0.28781   1.000
    O517    O    0.83636   0.74992   0.29734   1.000
    O518    O    0.05085   0.29661   0.28527   1.000
    O519    O    0.06796   0.20730   0.28781   1.000
    O520    O    0.05086   0.79660   0.28525   1.000
    O521    O    0.06796   0.70729   0.28781   1.000
    O522    O    0.55085   0.29662   0.28526   1.000
    O523    O    0.56796   0.20730   0.28781   1.000
    O524    O    0.55085   0.79660   0.28526   1.000
    O525    O    0.56796   0.70729   0.28781   1.000
    O526    O    0.23473   0.20328   0.28529   1.000
    O527    O    0.22018   0.29266   0.28781   1.000
    O528    O    0.33637   0.24993   0.29735   1.000
    O529    O    0.23473   0.70327   0.28529   1.000
    O530    O    0.22018   0.79264   0.28781   1.000
    O531    O    0.33637   0.74991   0.29735   1.000
    O532    O    0.95082   0.97087   0.29281   1.000
    O533    O    0.95082   0.47088   0.29284   1.000
    O534    O    0.45082   0.47088   0.29281   1.000
    O535    O    0.45082   0.97087   0.29283   1.000
    O536    O    0.34246   0.02940   0.29284   1.000
    O537    O    0.84246   0.52939   0.29283   1.000
    O538    O    0.84246   0.02941   0.29283   1.000
    O539    O    0.34246   0.52939   0.29284   1.000
    O540    O    0.91020   0.50006   0.31983   1.000
    O541    O    0.84451   0.49313   0.32164   1.000
    O542    O    0.86575   0.54406   0.35075   1.000
    O543    O    0.91020   0.00006   0.31980   1.000
    O544    O    0.84452   0.99313   0.32164   1.000
    O545    O    0.86575   0.04408   0.35075   1.000
    O546    O    0.41020   0.50006   0.31980   1.000
    O547    O    0.47781   0.50698   0.32182   1.000
    O548    O    0.48567   0.45586   0.35065   1.000
    O549    O    0.97781   0.00698   0.32182   1.000
    O550    O    0.98567   0.95584   0.35066   1.000
    O551    O    0.34452   0.49312   0.32165   1.000
    O552    O    0.36575   0.54406   0.35075   1.000
    O553    O    0.41020   0.00006   0.31983   1.000
    O554    O    0.34452   0.99312   0.32165   1.000
    O555    O    0.36575   0.04407   0.35075   1.000
    O556    O    0.47781   0.00698   0.32185   1.000
    O557    O    0.48567   0.95584   0.35067   1.000
    O558    O    0.97781   0.50698   0.32185   1.000
    O559    O    0.98567   0.45586   0.35069   1.000
    O560    O    0.14599   0.83928   0.32306   1.000
    O561    O    0.10036   0.86892   0.34588   1.000
    O562    O    0.64598   0.33930   0.32308   1.000
    O563    O    0.60035   0.36893   0.34589   1.000
    O564    O    0.64598   0.83928   0.32308   1.000
    O565    O    0.60035   0.86892   0.34589   1.000
    O566    O    0.14599   0.33929   0.32308   1.000
    O567    O    0.10036   0.36893   0.34590   1.000
    O568    O    0.67765   0.16061   0.32310   1.000
    O569    O    0.74624   0.13090   0.34599   1.000
    O570    O    0.17765   0.66059   0.32310   1.000
    O571    O    0.24624   0.63088   0.34599   1.000
    O572    O    0.67765   0.66060   0.32310   1.000
    O573    O    0.74624   0.63088   0.34599   1.000
    O574    O    0.17765   0.16061   0.32310   1.000
    O575    O    0.24624   0.13089   0.34599   1.000
    O576    O    0.13674   0.64251   0.35136   1.000
    O577    O    0.13674   0.14252   0.35136   1.000
    O578    O    0.63673   0.64251   0.35136   1.000
    O579    O    0.63673   0.14252   0.35136   1.000
    O580    O    0.71531   0.35745   0.35135   1.000
    O581    O    0.21532   0.35745   0.35135   1.000
    O582    O    0.21533   0.85743   0.35135   1.000
    O583    O    0.71531   0.85744   0.35135   1.000
    O584    O    0.05665   0.41095   0.37639   1.000
    O585    O    0.14155   0.40592   0.38891   1.000
    O586    O    0.05665   0.91093   0.37639   1.000
    O587    O    0.14156   0.90591   0.38891   1.000
    O588    O    0.55664   0.41095   0.37638   1.000
    O589    O    0.64154   0.40592   0.38891   1.000
    O590    O    0.55664   0.91094   0.37638   1.000
    O591    O    0.64154   0.90591   0.38891   1.000
    O592    O    0.32064   0.58881   0.37655   1.000
    O593    O    0.24831   0.59390   0.38904   1.000
    O594    O    0.32063   0.08883   0.37655   1.000
    O595    O    0.24830   0.09392   0.38904   1.000
    O596    O    0.82063   0.58882   0.37655   1.000
    O597    O    0.74830   0.59391   0.38904   1.000
    O598    O    0.82063   0.08883   0.37655   1.000
    O599    O    0.74830   0.09392   0.38904   1.000
    O600    O    0.21219   0.89838   0.39182   1.000
    O601    O    0.71218   0.89839   0.39182   1.000
    O602    O    0.71218   0.39840   0.39182   1.000
    O603    O    0.21219   0.39840   0.39182   1.000
    O604    O    0.18057   0.10152   0.39189   1.000
    O605    O    0.68057   0.60151   0.39189   1.000
    O606    O    0.68057   0.10153   0.39189   1.000
    O607    O    0.18057   0.60151   0.39189   1.000
    O608    O    0.99323   0.90530   0.38066   1.000
    O609    O    0.99323   0.40532   0.38066   1.000
    O610    O    0.49323   0.90530   0.38065   1.000
    O611    O    0.49323   0.40532   0.38065   1.000
    O612    O    0.88842   0.09443   0.38085   1.000
    O613    O    0.88842   0.59442   0.38099   1.000
    O614    O    0.38843   0.09443   0.38100   1.000
    O615    O    0.38843   0.59442   0.38100   1.000
    O616    O    0.52476   0.93999   0.40937   1.000
    O617    O    0.52476   0.44000   0.40937   1.000
    O618    O    0.02477   0.44000   0.40939   1.000
    O619    O    0.02477   0.93999   0.40936   1.000
    O620    O    0.88563   0.55956   0.40950   1.000
    O621    O    0.88563   0.05957   0.40950   1.000
    O622    O    0.38563   0.55955   0.40950   1.000
    O623    O    0.38563   0.05956   0.40950   1.000
    O624    O    0.21704   0.95860   0.45328   1.000
    O625    O    0.71703   0.45860   0.45328   1.000
    O626    O    0.71704   0.95860   0.45328   1.000
    O627    O    0.21704   0.45860   0.45328   1.000
    O628    O    0.73679   0.04131   0.45334   1.000
    O629    O    0.23680   0.54129   0.45334   1.000
    O630    O    0.23679   0.04131   0.45334   1.000
    O631    O    0.73679   0.54130   0.45334   1.000
    O632    O    0.26329   0.95865   0.54664   1.000
    O633    O    0.28304   0.04135   0.54670   1.000
    O634    O    0.26329   0.45865   0.54664   1.000
    O635    O    0.28304   0.54134   0.54670   1.000
    O636    O    0.76328   0.45865   0.54664   1.000
    O637    O    0.78303   0.54134   0.54669   1.000
    O638    O    0.76328   0.95865   0.54664   1.000
    O639    O    0.78303   0.04135   0.54669   1.000
    O640    O    0.11445   0.44039   0.59043   1.000
    O641    O    0.11445   0.94037   0.59043   1.000
    O642    O    0.61444   0.44039   0.59047   1.000
    O643    O    0.61445   0.94038   0.59047   1.000
    O644    O    0.97531   0.55994   0.59059   1.000
    O645    O    0.47532   0.05995   0.59059   1.000
    O646    O    0.97530   0.05995   0.59059   1.000
    O647    O    0.47532   0.55994   0.59059   1.000
    O648    O    0.31951   0.89842   0.60808   1.000
    O649    O    0.25178   0.90602   0.61093   1.000
    O650    O    0.81951   0.39843   0.60808   1.000
    O651    O    0.75177   0.40604   0.61093   1.000
    O652    O    0.31951   0.39843   0.60808   1.000
    O653    O    0.25178   0.40603   0.61093   1.000
    O654    O    0.81951   0.89842   0.60808   1.000
    O655    O    0.75178   0.90602   0.61093   1.000
    O656    O    0.78788   0.10156   0.60815   1.000
    O657    O    0.85852   0.09403   0.61105   1.000
    O658    O    0.78789   0.60155   0.60815   1.000
    O659    O    0.85852   0.59402   0.61105   1.000
    O660    O    0.28790   0.10156   0.60816   1.000
    O661    O    0.35853   0.09403   0.61106   1.000
    O662    O    0.28790   0.60154   0.60816   1.000
    O663    O    0.35854   0.59402   0.61106   1.000
    O664    O    0.11165   0.40552   0.61890   1.000
    O665    O    0.17945   0.41112   0.62339   1.000
    O666    O    0.13433   0.45588   0.64918   1.000
    O667    O    0.11166   0.90551   0.61890   1.000
    O668    O    0.17945   0.91111   0.62339   1.000
    O669    O    0.13433   0.95587   0.64918   1.000
    O670    O    0.61165   0.90551   0.61897   1.000
    O671    O    0.67944   0.91111   0.62342   1.000
    O672    O    0.63433   0.95587   0.64922   1.000
    O673    O    0.61165   0.40553   0.61897   1.000
    O674    O    0.67944   0.41113   0.62342   1.000
    O675    O    0.63432   0.45588   0.64922   1.000
    O676    O    0.00684   0.09464   0.61931   1.000
    O677    O    0.94342   0.08901   0.62358   1.000
    O678    O    0.01441   0.04410   0.64928   1.000
    O679    O    0.50685   0.59463   0.61931   1.000
    O680    O    0.44343   0.58899   0.62358   1.000
    O681    O    0.51441   0.54409   0.64928   1.000
    O682    O    0.50685   0.09464   0.61931   1.000
    O683    O    0.44343   0.08901   0.62358   1.000
    O684    O    0.51441   0.04410   0.64928   1.000
    O685    O    0.00685   0.59463   0.61931   1.000
    O686    O    0.94342   0.58899   0.62358   1.000
    O687    O    0.01441   0.54409   0.64928   1.000
    O688    O    0.36334   0.35743   0.64862   1.000
    O689    O    0.86334   0.35743   0.64862   1.000
    O690    O    0.86334   0.85742   0.64862   1.000
    O691    O    0.36335   0.85742   0.64862   1.000
    O692    O    0.78475   0.64250   0.64862   1.000
    O693    O    0.78475   0.14251   0.64862   1.000
    O694    O    0.28476   0.64249   0.64863   1.000
    O695    O    0.28476   0.14250   0.64863   1.000
    O696    O    0.75383   0.86905   0.65399   1.000
    O697    O    0.75383   0.36906   0.65399   1.000
    O698    O    0.25384   0.36906   0.65399   1.000
    O699    O    0.25384   0.86904   0.65399   1.000
    O700    O    0.89971   0.63101   0.65407   1.000
    O701    O    0.89971   0.13102   0.65407   1.000
    O702    O    0.39973   0.63101   0.65406   1.000
    O703    O    0.39972   0.13102   0.65406   1.000
    O704    O    0.16372   0.25002   0.70259   1.000
    O705    O    0.16372   0.75001   0.70262   1.000
    O706    O    0.66371   0.25003   0.70262   1.000
    O707    O    0.66371   0.75001   0.70262   1.000
    O708    O    0.85409   0.66065   0.67689   1.000
    O709    O    0.77990   0.70728   0.71216   1.000
    O710    O    0.35410   0.66064   0.67687   1.000
    O711    O    0.27991   0.70728   0.71216   1.000
    O712    O    0.85409   0.16066   0.67689   1.000
    O713    O    0.77990   0.20730   0.71216   1.000
    O714    O    0.35410   0.16066   0.67687   1.000
    O715    O    0.27991   0.20729   0.71216   1.000
    O716    O    0.82242   0.83933   0.67688   1.000
    O717    O    0.93212   0.79264   0.71217   1.000
    O718    O    0.82242   0.33935   0.67688   1.000
    O719    O    0.93212   0.29265   0.71217   1.000
    O720    O    0.32243   0.33934   0.67688   1.000
    O721    O    0.43212   0.29265   0.71217   1.000
    O722    O    0.32243   0.83933   0.67688   1.000
    O723    O    0.43212   0.79264   0.71217   1.000
    O724    O    0.52228   0.99297   0.67812   1.000
    O725    O    0.52227   0.49297   0.67812   1.000
    O726    O    0.02228   0.99297   0.67812   1.000
    O727    O    0.02228   0.49297   0.67812   1.000
    O728    O    0.15556   0.00682   0.67828   1.000
    O729    O    0.65556   0.50682   0.67832   1.000
    O730    O    0.65556   0.00682   0.67832   1.000
    O731    O    0.15556   0.50682   0.67832   1.000
    O732    O    0.26535   0.29667   0.71469   1.000
    O733    O    0.44923   0.70332   0.71469   1.000
    O734    O    0.44923   0.20334   0.71469   1.000
    O735    O    0.26535   0.79666   0.71469   1.000
    O736    O    0.76534   0.29667   0.71469   1.000
    O737    O    0.76534   0.79666   0.71469   1.000
    O738    O    0.94923   0.20334   0.71471   1.000
    O739    O    0.94923   0.70332   0.71471   1.000
    O740    O    0.58988   0.99989   0.68014   1.000
    O741    O    0.54926   0.02907   0.70714   1.000
    O742    O    0.08988   0.49989   0.68014   1.000
    O743    O    0.04926   0.52906   0.70714   1.000
    O744    O    0.08988   0.99989   0.68014   1.000
    O745    O    0.04926   0.02907   0.70714   1.000
    O746    O    0.58988   0.49989   0.68014   1.000
    O747    O    0.54926   0.52906   0.70714   1.000
    O748    O    0.15762   0.47055   0.70714   1.000
    O749    O    0.15762   0.97054   0.70714   1.000
    O750    O    0.65762   0.97054   0.70713   1.000
    O751    O    0.65762   0.47056   0.70713   1.000
    O752    O    0.05086   0.29661   0.78525   1.000
    O753    O    0.06797   0.20730   0.78779   1.000
    O754    O    0.05086   0.79660   0.78525   1.000
    O755    O    0.06797   0.70729   0.78779   1.000
    O756    O    0.55085   0.29662   0.78525   1.000
    O757    O    0.56796   0.20730   0.78779   1.000
    O758    O    0.55085   0.79660   0.78525   1.000
    O759    O    0.56796   0.70729   0.78779   1.000
    O760    O    0.23474   0.20328   0.78527   1.000
    O761    O    0.22018   0.29266   0.78780   1.000
    O762    O    0.33637   0.24993   0.79733   1.000
    O763    O    0.73473   0.70327   0.78524   1.000
    O764    O    0.72017   0.79265   0.78779   1.000
    O765    O    0.83636   0.74992   0.79733   1.000
    O766    O    0.73473   0.20328   0.78527   1.000
    O767    O    0.72017   0.29266   0.78779   1.000
    O768    O    0.83636   0.24993   0.79733   1.000
    O769    O    0.23474   0.70327   0.78527   1.000
    O770    O    0.22018   0.79264   0.78780   1.000
    O771    O    0.33637   0.74991   0.79733   1.000
    O772    O    0.45083   0.97087   0.79282   1.000
    O773    O    0.95082   0.47088   0.79282   1.000
    O774    O    0.45082   0.47088   0.79282   1.000
    O775    O    0.95082   0.97087   0.79282   1.000
    O776    O    0.84247   0.52939   0.79282   1.000
    O777    O    0.84246   0.02940   0.79282   1.000
    O778    O    0.34247   0.52939   0.79282   1.000
    O779    O    0.34247   0.02940   0.79282   1.000
    O780    O    0.91020   0.00005   0.81981   1.000
    O781    O    0.84452   0.99312   0.82163   1.000
    O782    O    0.86575   0.04407   0.85074   1.000
    O783    O    0.91020   0.50005   0.81981   1.000
    O784    O    0.84452   0.49312   0.82163   1.000
    O785    O    0.86575   0.54406   0.85074   1.000
    O786    O    0.41020   0.00005   0.81981   1.000
    O787    O    0.34452   0.99312   0.82163   1.000
    O788    O    0.36576   0.04407   0.85074   1.000
    O789    O    0.41020   0.50005   0.81981   1.000
    O790    O    0.34452   0.49312   0.82163   1.000
    O791    O    0.36576   0.54406   0.85074   1.000
    O792    O    0.47781   0.50698   0.82182   1.000
    O793    O    0.48567   0.45586   0.85067   1.000
    O794    O    0.47781   0.00698   0.82183   1.000
    O795    O    0.48567   0.95584   0.85067   1.000
    O796    O    0.97781   0.50697   0.82184   1.000
    O797    O    0.98567   0.45586   0.85067   1.000
    O798    O    0.97781   0.00697   0.82184   1.000
    O799    O    0.98568   0.95584   0.85067   1.000
    O800    O    0.67765   0.66059   0.82305   1.000
    O801    O    0.74624   0.63088   0.84594   1.000
    O802    O    0.64598   0.83928   0.82306   1.000
    O803    O    0.60036   0.86892   0.84588   1.000
    O804    O    0.14599   0.33929   0.82307   1.000
    O805    O    0.10037   0.36893   0.84588   1.000
    O806    O    0.64598   0.33930   0.82306   1.000
    O807    O    0.60036   0.36893   0.84588   1.000
    O808    O    0.14600   0.83928   0.82307   1.000
    O809    O    0.10037   0.86892   0.84588   1.000
    O810    O    0.67765   0.16061   0.82308   1.000
    O811    O    0.74624   0.13090   0.84597   1.000
    O812    O    0.17766   0.66059   0.82309   1.000
    O813    O    0.24625   0.63088   0.84598   1.000
    O814    O    0.17766   0.16061   0.82309   1.000
    O815    O    0.24625   0.13089   0.84598   1.000
    O816    O    0.63674   0.14252   0.85134   1.000
    O817    O    0.63674   0.64251   0.85134   1.000
    O818    O    0.71532   0.35745   0.85132   1.000
    O819    O    0.71532   0.85744   0.85133   1.000
    O820    O    0.13674   0.64251   0.85135   1.000
    O821    O    0.13674   0.14252   0.85135   1.000
    O822    O    0.21533   0.85743   0.85134   1.000
    O823    O    0.21533   0.35745   0.85134   1.000
    O824    O    0.55665   0.41095   0.87638   1.000
    O825    O    0.64155   0.40592   0.88890   1.000
    O826    O    0.05666   0.91093   0.87638   1.000
    O827    O    0.14156   0.90591   0.88890   1.000
    O828    O    0.55665   0.91094   0.87638   1.000
    O829    O    0.64155   0.90591   0.88887   1.000
    O830    O    0.05666   0.41095   0.87638   1.000
    O831    O    0.14156   0.40592   0.88890   1.000
    O832    O    0.82064   0.58882   0.87653   1.000
    O833    O    0.74831   0.59390   0.88899   1.000
    O834    O    0.82063   0.08883   0.87653   1.000
    O835    O    0.74830   0.09392   0.88899   1.000
    O836    O    0.32064   0.58881   0.87654   1.000
    O837    O    0.24831   0.59390   0.88903   1.000
    O838    O    0.32064   0.08883   0.87654   1.000
    O839    O    0.24831   0.09392   0.88903   1.000
    O840    O    0.71218   0.39840   0.89180   1.000
    O841    O    0.71218   0.89839   0.89177   1.000
    O842    O    0.21220   0.89838   0.89181   1.000
    O843    O    0.21219   0.39840   0.89181   1.000
    O844    O    0.18058   0.10153   0.89188   1.000
    O845    O    0.18058   0.60151   0.89188   1.000
    O846    O    0.68057   0.10153   0.89184   1.000
    O847    O    0.68057   0.60151   0.89184   1.000
    O848    O    0.99324   0.90530   0.88065   1.000
    O849    O    0.99323   0.40532   0.88065   1.000
    O850    O    0.49323   0.90530   0.88065   1.000
    O851    O    0.49323   0.40532   0.88065   1.000
    O852    O    0.38843   0.09443   0.88094   1.000
    O853    O    0.88843   0.59442   0.88098   1.000
    O854    O    0.38843   0.59441   0.88098   1.000
    O855    O    0.88843   0.09443   0.88098   1.000
    O856    O    0.02477   0.93999   0.90937   1.000
    O857    O    0.02477   0.44000   0.90937   1.000
    O858    O    0.52476   0.44000   0.90937   1.000
    O859    O    0.52476   0.93999   0.90937   1.000
    O860    O    0.88563   0.05957   0.90949   1.000
    O861    O    0.88563   0.55955   0.90949   1.000
    O862    O    0.38564   0.55955   0.90949   1.000
    O863    O    0.38564   0.05956   0.90949   1.000
    O864    O    0.71704   0.95860   0.95325   1.000
    O865    O    0.71704   0.45860   0.95328   1.000
    O866    O    0.21705   0.95860   0.95328   1.000
    O867    O    0.21705   0.45860   0.95328   1.000
    O868    O    0.73679   0.54129   0.95330   1.000
    O869    O    0.73679   0.04131   0.95330   1.000
    O870    O    0.23680   0.04130   0.95334   1.000
    O871    O    0.23680   0.54129   0.95334   1.000
loop_
    _geom_bond_atom_site_label_1
    _geom_bond_atom_site_label_2
    _geom_bond_distance
    _geom_bond_site_symmetry_2
    _ccdc_geom_bond_type
    C64    O392      0.55036      .   S
    C184   O392      0.55036      .   S
    C66    O393      0.55036      .   S
    C186   O393      0.55036      .   S
    C70    O394      0.55037      .   S
    C190   O394      0.55037      .   S
    C68    O395      0.55037      .   S
    C188   O395      0.55037      .   S
    C38    O396      0.55074      .   S
    C166   O396      0.55074      .   S
    C36    O397      0.55074      .   S
    C164   O397      0.55074      .   S
    C32    O398      0.54983      .   S
    C160   O398      0.54983      .   S
    C34    O399      0.54983      .   S
    C162   O399      0.54983      .   S
    C302   O400      0.67712      .   S
    C294   O400      0.67712      .   S
    C302   O401      0.67533      .   S
    C182   O401      0.67533      .   S
    C302   O402      1.15255      .   S
    C20    O402      1.15255      .   S
    C300   O403      0.67744      .   S
    C292   O403      0.67744      .   S
    C300   O404      0.67533      .   S
    C180   O404      0.67533      .   S
    C300   O405      1.15239      .   S
    C22    O405      1.15239      .   S
    C296   O406      0.67744      .   S
    C288   O406      0.67744      .   S
    C296   O407      0.67526      .   S
    C176   O407      0.67526      .   S
    C296   O408      1.15246      .   S
    C18    O408      1.15246      .   S
    C298   O409      0.67744      .   S
    C290   O409      0.67744      .   S
    C298   O410      0.67526      .   S
    C178   O410      0.67526      .   S
    C298   O411      1.15262      .   S
    C16    O411      1.15262      .   S
    C270   O412      0.67755      .   S
    C262   O412      0.67755      .   S
    C270   O413      0.67532      .   S
    C158   O413      0.67532      .   S
    C270   O414      1.15186      .   S
    C22    O414      1.15186      .   S
    C268   O415      0.67743      .   S
    C260   O415      0.67743      .   S
    C268   O416      0.67531      .   S
    C156   O416      0.67531      .   S
    C268   O417      1.15196      .   S
    C20    O417      1.15196  1_565   S
    C266   O418      0.67742      .   S
    C258   O418      0.67742      .   S
    C266   O419      0.67531      .   S
    C154   O419      0.67531      .   S
    C266   O420      1.15196      .   S
    C18    O420      1.15196      .   S
    C264   O421      0.67742      .   S
    C256   O421      0.67742      .   S
    C264   O422      0.67531      .   S
    C152   O422      0.67531      .   S
    C264   O423      1.15196      .   S
    C16    O423      1.15196  1_565   S
    C188   O424      0.55027      .   S
    C60    O424      0.55027      .   S
    C188   O425      0.74482      .   S
    C180   O425      0.74482      .   S
    C188   O426      0.77065      .   S
    C196   O426      0.77065      .   S
    C184   O427      0.55026      .   S
    C56    O427      0.55026      .   S
    C184   O428      0.74483      .   S
    C176   O428      0.74483      .   S
    C184   O429      0.77073      .   S
    C192   O429      0.77073      .   S
    C186   O430      0.55027      .   S
    C58    O430      0.55027      .   S
    C186   O431      0.74483      .   S
    C178   O431      0.74483      .   S
    C186   O432      0.77073      .   S
    C194   O432      0.77073      .   S
    C190   O433      0.54825      .   S
    C62    O433      0.54825      .   S
    C190   O434      0.74483      .   S
    C182   O434      0.74483      .   S
    C190   O435      0.77065      .   S
    C198   O435      0.77065      .   S
    C162   O436      0.55029      .   S
    C30    O436      0.55029      .   S
    C162   O437      0.74508      .   S
    C154   O437      0.74508      .   S
    C162   O438      0.77110      .   S
    C174   O438      0.77110      .   S
    C160   O439      0.55029      .   S
    C28    O439      0.55029      .   S
    C160   O440      0.74507      .   S
    C152   O440      0.74507      .   S
    C160   O441      0.77110      .   S
    C172   O441      0.77110      .   S
    C166   O442      0.55054  1_655   S
    C26    O442      0.55054      .   S
    C166   O443      0.74480      .   S
    C158   O443      0.74480      .   S
    C166   O444      0.77078  1_655   S
    C170   O444      0.77078      .   S
    C164   O445      0.55033  1_655   S
    C24    O445      0.55033      .   S
    C164   O446      0.74480      .   S
    C156   O446      0.74480      .   S
    C164   O447      0.77078  1_655   S
    C168   O447      0.77078      .   S
    C294   O448      0.66490      .   S
    C286   O448      0.66490      .   S
    C292   O449      0.65744      .   S
    C284   O449      0.65744      .   S
    C290   O450      0.65799      .   S
    C282   O450      0.65799      .   S
    C288   O451      0.65799      .   S
    C280   O451      0.65799      .   S
    C256   O452      0.65801      .   S
    C248   O452      0.65801      .   S
    C258   O453      0.65801      .   S
    C250   O453      0.65801      .   S
    C260   O454      0.65800      .   S
    C252   O454      0.65800      .   S
    C262   O455      0.65800      .   S
    C254   O455      0.65800      .   S
    C182   O456      0.67191      .   S
    C310   O456      0.67191      .   S
    C180   O457      0.67192      .   S
    C308   O457      0.67192      .   S
    C178   O458      0.67187      .   S
    C306   O458      0.67187      .   S
    C176   O459      0.67192      .   S
    C304   O459      0.67192      .   S
    C152   O460      0.67185      .   S
    C272   O460      0.67185      .   S
    C158   O461      0.67185      .   S
    C278   O461      0.67185      .   S
    C156   O462      0.67143      .   S
    C276   O462      0.67143      .   S
    C154   O463      0.67185      .   S
    C274   O463      0.67185      .   S
    C382   O464      1.30512      .   S
    C14    O464      1.30512      .   S
    C380   O465      1.30512      .   S
    C12    O465      1.30512      .   S
    C378   O466      1.30514      .   S
    C10    O466      1.30514      .   S
    C376   O467      1.30514      .   S
    C8     O467      1.30514      .   S
    C284   O468      0.68014      .   S
    C308   O468      0.68014      .   S
    C284   O469      1.23253      .   S
    C0     O469      1.23253  1_455   S
    C254   O470      0.67987      .   S
    C278   O470      0.67987      .   S
    C254   O471      1.23309      .   S
    C14    O471      1.23309      .   S
    C252   O472      0.68006      .   S
    C276   O472      0.68006      .   S
    C252   O473      1.23310      .   S
    C12    O473      1.23310      .   S
    C250   O474      0.67986      .   S
    C274   O474      0.67986      .   S
    C250   O475      1.23317      .   S
    C10    O475      1.23317      .   S
    C248   O476      0.67985      .   S
    C272   O476      0.67985      .   S
    C248   O477      1.23318      .   S
    C8     O477      1.23318      .   S
    C286   O478      0.67982      .   S
    C310   O478      0.67982      .   S
    C286   O479      1.23234      .   S
    C2     O479      1.23234  1_455   S
    C282   O480      0.67973      .   S
    C306   O480      0.67973      .   S
    C282   O481      1.23225      .   S
    C6     O481      1.23225      .   S
    C280   O482      0.67977      .   S
    C304   O482      0.67977      .   S
    C280   O483      1.23225      .   S
    C4     O483      1.23225      .   S
    C48    O484      0.55051      .   S
    C170   O484      0.55051      .   S
    C50    O485      0.55070      .   S
    C168   O485      0.55070  1_545   S
    C54    O486      0.55071      .   S
    C172   O486      0.55071  1_545   S
    C52    O487      0.55053      .   S
    C174   O487      0.55053      .   S
    C84    O488      0.55068      .   S
    C198   O488      0.55068  1_565   S
    C82    O489      0.55052      .   S
    C192   O489      0.55052      .   S
    C80    O490      0.55071      .   S
    C194   O490      0.55071  1_565   S
    C86    O491      0.55050      .   S
    C196   O491      0.55050      .   S
    C276   O492      1.23325      .   S
    C0     O492      1.23325  1_455   S
    C306   O493      1.23357      .   S
    C10    O493      1.23357      .   S
    C308   O494      1.23345      .   S
    C12    O494      1.23345      .   S
    C310   O495      1.23345      .   S
    C14    O495      1.23345      .   S
    C304   O496      1.23350      .   S
    C8     O496      1.23350      .   S
    C272   O497      1.23305      .   S
    C4     O497      1.23305      .   S
    C278   O498      1.23311      .   S
    C2     O498      1.23311  1_455   S
    C274   O499      1.23305      .   S
    C6     O499      1.23305      .   S
    C174   O500      0.76339      .   S
    C196   O500      0.76339      .   S
    C174   O501      0.54938      .   S
    C46    O501      0.54938      .   S
    C172   O502      0.76347  1_545   S
    C198   O502      0.76347      .   S
    C172   O503      0.54939      .   S
    C44    O503      0.54939      .   S
    C170   O504      0.76336      .   S
    C192   O504      0.76336      .   S
    C170   O505      0.54939      .   S
    C42    O505      0.54939      .   S
    C168   O506      0.76345  1_545   S
    C194   O506      0.76345      .   S
    C168   O507      0.54939      .   S
    C40    O507      0.54939      .   S
    C198   O508      0.54947      .   S
    C78    O508      0.54947      .   S
    C196   O509      0.54947      .   S
    C76    O509      0.54947      .   S
    C194   O510      0.54939      .   S
    C74    O510      0.54939      .   S
    C192   O511      0.54939      .   S
    C72    O511      0.54939      .   S
    C12    O512      1.23349      .   S
    C372   O512      1.23349      .   S
    C12    O513      1.23318      .   S
    C316   O513      1.23318      .   S
    C12    O514      1.30514      .   S
    C388   O514      1.30514      .   S
    C14    O515      1.23349      .   S
    C374   O515      1.23349      .   S
    C14    O516      1.23317      .   S
    C318   O516      1.23317      .   S
    C14    O517      1.30514      .   S
    C390   O517      1.30514      .   S
    C0     O518      1.23304      .   S
    C336   O518      1.23304      .   S
    C0     O519      1.23223      .   S
    C344   O519      1.23223      .   S
    C2     O520      1.23295      .   S
    C338   O520      1.23295      .   S
    C2     O521      1.23223      .   S
    C346   O521      1.23223      .   S
    C4     O522      1.23302      .   S
    C340   O522      1.23302      .   S
    C4     O523      1.23224      .   S
    C348   O523      1.23224      .   S
    C6     O524      1.23303      .   S
    C342   O524      1.23303      .   S
    C6     O525      1.23224      .   S
    C350   O525      1.23224      .   S
    C8     O526      1.23344      .   S
    C368   O526      1.23344      .   S
    C8     O527      1.23311      .   S
    C312   O527      1.23311      .   S
    C8     O528      1.30514      .   S
    C384   O528      1.30514      .   S
    C10    O529      1.23343      .   S
    C370   O529      1.23343      .   S
    C10    O530      1.23311      .   S
    C314   O530      1.23311      .   S
    C10    O531      1.30515      .   S
    C386   O531      1.30515      .   S
    C110   O532      0.54896      .   S
    C222   O532      0.54896      .   S
    C108   O533      0.54947      .   S
    C220   O533      0.54947      .   S
    C104   O534      0.54895      .   S
    C216   O534      0.54895      .   S
    C106   O535      0.54938      .   S
    C218   O535      0.54938      .   S
    C136   O536      0.54947      .   S
    C240   O536      0.54947      .   S
    C142   O537      0.54939      .   S
    C246   O537      0.54939      .   S
    C140   O538      0.54940      .   S
    C244   O538      0.54940      .   S
    C138   O539      0.54947      .   S
    C242   O539      0.54947      .   S
    C246   O540      0.76334      .   S
    C220   O540      0.76334      .   S
    C246   O541      0.55054      .   S
    C148   O541      0.55054      .   S
    C246   O542      0.77072      .   S
    C238   O542      0.77072      .   S
    C244   O543      0.76364      .   S
    C222   O543      0.76364  1_565   S
    C244   O544      0.55072  1_545   S
    C150   O544      0.55072      .   S
    C244   O545      0.77071      .   S
    C236   O545      0.77071      .   S
    C216   O546      0.76359      .   S
    C242   O546      0.76359      .   S
    C216   O547      0.55042      .   S
    C114   O547      0.55042      .   S
    C216   O548      0.77088      .   S
    C212   O548      0.77088      .   S
    C222   O549      0.55060  1_565   S
    C116   O549      0.55060      .   S
    C222   O550      0.77107      .   S
    C210   O550      0.77107  1_455   S
    C242   O551      0.55051      .   S
    C144   O551      0.55051      .   S
    C242   O552      0.77064      .   S
    C234   O552      0.77064      .   S
    C240   O553      0.76348      .   S
    C218   O553      0.76348  1_565   S
    C240   O554      0.55069  1_545   S
    C146   O554      0.55069      .   S
    C240   O555      0.77063      .   S
    C232   O555      0.77063      .   S
    C218   O556      0.55071  1_565   S
    C112   O556      0.55071      .   S
    C218   O557      0.77060      .   S
    C214   O557      0.77060      .   S
    C220   O558      0.55054      .   S
    C118   O558      0.55054      .   S
    C220   O559      0.77074      .   S
    C208   O559      0.77074  1_455   S
    C338   O560      0.67975      .   S
    C314   O560      0.67975      .   S
    C338   O561      0.67206      .   S
    C202   O561      0.67206      .   S
    C340   O562      0.67985      .   S
    C316   O562      0.67985      .   S
    C340   O563      0.67186      .   S
    C204   O563      0.67186      .   S
    C342   O564      0.67986      .   S
    C318   O564      0.67986      .   S
    C342   O565      0.67185      .   S
    C206   O565      0.67185      .   S
    C336   O566      0.67989      .   S
    C312   O566      0.67989      .   S
    C336   O567      0.67179      .   S
    C200   O567      0.67179      .   S
    C372   O568      0.67981      .   S
    C348   O568      0.67981      .   S
    C372   O569      0.67192      .   S
    C228   O569      0.67192      .   S
    C370   O570      0.67981      .   S
    C346   O570      0.67981      .   S
    C370   O571      0.67192      .   S
    C226   O571      0.67192      .   S
    C374   O572      0.67981      .   S
    C350   O572      0.67981      .   S
    C374   O573      0.67193      .   S
    C230   O573      0.67193      .   S
    C368   O574      0.67982      .   S
    C344   O574      0.67982      .   S
    C368   O575      0.67192      .   S
    C224   O575      0.67192      .   S
    C346   O576      0.65798      .   S
    C354   O576      0.65798      .   S
    C344   O577      0.65797      .   S
    C352   O577      0.65797      .   S
    C350   O578      0.65798      .   S
    C358   O578      0.65798      .   S
    C348   O579      0.65798      .   S
    C356   O579      0.65798      .   S
    C316   O580      0.65802      .   S
    C324   O580      0.65802      .   S
    C312   O581      0.65801      .   S
    C320   O581      0.65801      .   S
    C314   O582      0.65802      .   S
    C322   O582      0.65802      .   S
    C318   O583      0.65803      .   S
    C326   O583      0.65803      .   S
    C200   O584      0.74481      .   S
    C208   O584      0.74481      .   S
    C200   O585      0.67531      .   S
    C328   O585      0.67531      .   S
    C202   O586      0.74482      .   S
    C210   O586      0.74482      .   S
    C202   O587      0.67530      .   S
    C330   O587      0.67530      .   S
    C204   O588      0.74466      .   S
    C212   O588      0.74466      .   S
    C204   O589      0.67530      .   S
    C332   O589      0.67530      .   S
    C206   O590      0.74466      .   S
    C214   O590      0.74466      .   S
    C206   O591      0.67530      .   S
    C334   O591      0.67530      .   S
    C226   O592      0.74481      .   S
    C234   O592      0.74481      .   S
    C226   O593      0.67531      .   S
    C362   O593      0.67531      .   S
    C224   O594      0.74482      .   S
    C232   O594      0.74482      .   S
    C224   O595      0.67531      .   S
    C360   O595      0.67531      .   S
    C230   O596      0.74482      .   S
    C238   O596      0.74482      .   S
    C230   O597      0.67531      .   S
    C366   O597      0.67531      .   S
    C228   O598      0.74482      .   S
    C236   O598      0.74482      .   S
    C228   O599      0.67531      .   S
    C364   O599      0.67531      .   S
    C322   O600      0.67742      .   S
    C330   O600      0.67742      .   S
    C326   O601      0.67741      .   S
    C334   O601      0.67741      .   S
    C324   O602      0.67741      .   S
    C332   O602      0.67741      .   S
    C320   O603      0.67742      .   S
    C328   O603      0.67742      .   S
    C352   O604      0.67744      .   S
    C360   O604      0.67744      .   S
    C358   O605      0.67744      .   S
    C366   O605      0.67744      .   S
    C356   O606      0.67744      .   S
    C364   O606      0.67744      .   S
    C354   O607      0.67744      .   S
    C362   O607      0.67744      .   S
    C94    O608      0.55032      .   S
    C210   O608      0.55032  1_455   S
    C92    O609      0.55031      .   S
    C208   O609      0.55031  1_455   S
    C90    O610      0.55030      .   S
    C214   O610      0.55030      .   S
    C88    O611      0.55031      .   S
    C212   O611      0.55031      .   S
    C124   O612      0.55113      .   S
    C236   O612      0.55113      .   S
    C126   O613      0.55026      .   S
    C238   O613      0.55026      .   S
    C120   O614      0.55025      .   S
    C232   O614      0.55025      .   S
    C122   O615      0.55025      .   S
    C234   O615      0.55025      .   S
    C214   O616      0.55057      .   S
    C102   O616      0.55057      .   S
    C212   O617      0.55056      .   S
    C100   O617      0.55056      .   S
    C208   O618      0.55040      .   S
    C96    O618      0.55040      .   S
    C210   O619      0.54999      .   S
    C98    O619      0.54999      .   S
    C238   O620      0.55037      .   S
    C134   O620      0.55037      .   S
    C236   O621      0.55037      .   S
    C132   O621      0.55037      .   S
    C234   O622      0.55038      .   S
    C130   O622      0.55038      .   S
    C232   O623      0.55038      .   S
    C128   O623      0.55038      .   S
    C330   O624      1.15210      .   S
    C17    O624      1.15210      .   S
    C332   O625      1.15194      .   S
    C23    O625      1.15194      .   S
    C334   O626      1.15210      .   S
    C21    O626      1.15210      .   S
    C328   O627      1.15194      .   S
    C19    O627      1.15194      .   S
    C364   O628      1.15242      .   S
    C21    O628      1.15242  1_565   S
    C362   O629      1.15242      .   S
    C19    O629      1.15242      .   S
    C360   O630      1.15242      .   S
    C17    O630      1.15242  1_565   S
    C366   O631      1.15242      .   S
    C23    O631      1.15242      .   S
    C17    O632      1.15256      .   S
    C299   O632      1.15256      .   S
    C17    O633      1.15196  1_565   S
    C265   O633      1.15196      .   S
    C19    O634      1.15240      .   S
    C297   O634      1.15240      .   S
    C19    O635      1.15196      .   S
    C267   O635      1.15196      .   S
    C23    O636      1.15240      .   S
    C301   O636      1.15240      .   S
    C23    O637      1.15191      .   S
    C271   O637      1.15191      .   S
    C21    O638      1.15256      .   S
    C303   O638      1.15256      .   S
    C21    O639      1.15190  1_565   S
    C269   O639      1.15190      .   S
    C65    O640      0.54981      .   S
    C185   O640      0.54981      .   S
    C67    O641      0.54981      .   S
    C187   O641      0.54981      .   S
    C69    O642      0.55037      .   S
    C189   O642      0.55037      .   S
    C71    O643      0.55037      .   S
    C191   O643      0.55037      .   S
    C39    O644      0.55041      .   S
    C167   O644      0.55041      .   S
    C33    O645      0.55041      .   S
    C161   O645      0.55041      .   S
    C37    O646      0.55041      .   S
    C165   O646      0.55041      .   S
    C35    O647      0.55041      .   S
    C163   O647      0.55041      .   S
    C299   O648      0.67744      .   S
    C291   O648      0.67744      .   S
    C299   O649      0.67533      .   S
    C179   O649      0.67533      .   S
    C301   O650      0.67744      .   S
    C293   O650      0.67744      .   S
    C301   O651      0.67533      .   S
    C181   O651      0.67533      .   S
    C297   O652      0.67744      .   S
    C289   O652      0.67744      .   S
    C297   O653      0.67533      .   S
    C177   O653      0.67533      .   S
    C303   O654      0.67744      .   S
    C295   O654      0.67744      .   S
    C303   O655      0.67533      .   S
    C183   O655      0.67533      .   S
    C269   O656      0.67742      .   S
    C261   O656      0.67742      .   S
    C269   O657      0.67530      .   S
    C157   O657      0.67530      .   S
    C271   O658      0.67743      .   S
    C263   O658      0.67743      .   S
    C271   O659      0.67530      .   S
    C159   O659      0.67530      .   S
    C265   O660      0.67742      .   S
    C257   O660      0.67742      .   S
    C265   O661      0.67530      .   S
    C153   O661      0.67530      .   S
    C267   O662      0.67742      .   S
    C259   O662      0.67742      .   S
    C267   O663      0.67530      .   S
    C155   O663      0.67530      .   S
    C185   O664      0.55023      .   S
    C57    O664      0.55023      .   S
    C185   O665      0.74462      .   S
    C177   O665      0.74462      .   S
    C185   O666      0.77124      .   S
    C193   O666      0.77124      .   S
    C187   O667      0.55023      .   S
    C59    O667      0.55023      .   S
    C187   O668      0.74463      .   S
    C179   O668      0.74463      .   S
    C187   O669      0.77123      .   S
    C195   O669      0.77123      .   S
    C191   O670      0.55027      .   S
    C63    O670      0.55027      .   S
    C191   O671      0.74480      .   S
    C183   O671      0.74480      .   S
    C191   O672      0.77072      .   S
    C199   O672      0.77072      .   S
    C189   O673      0.55027      .   S
    C61    O673      0.55027      .   S
    C189   O674      0.74480      .   S
    C181   O674      0.74480      .   S
    C189   O675      0.77072      .   S
    C197   O675      0.77072      .   S
    C165   O676      0.55033  1_655   S
    C25    O676      0.55033      .   S
    C165   O677      0.74475      .   S
    C157   O677      0.74475      .   S
    C165   O678      0.77072  1_655   S
    C169   O678      0.77072      .   S
    C163   O679      0.55024      .   S
    C31    O679      0.55024      .   S
    C163   O680      0.74479      .   S
    C155   O680      0.74479      .   S
    C163   O681      0.77070      .   S
    C175   O681      0.77070      .   S
    C161   O682      0.55024      .   S
    C29    O682      0.55024      .   S
    C161   O683      0.74479      .   S
    C153   O683      0.74479      .   S
    C161   O684      0.77070      .   S
    C173   O684      0.77070      .   S
    C167   O685      0.55034  1_655   S
    C27    O685      0.55034      .   S
    C167   O686      0.74475      .   S
    C159   O686      0.74475      .   S
    C167   O687      0.77072  1_655   S
    C171   O687      0.77072      .   S
    C289   O688      0.65799      .   S
    C281   O688      0.65799      .   S
    C293   O689      0.65800      .   S
    C285   O689      0.65800      .   S
    C295   O690      0.65800      .   S
    C287   O690      0.65800      .   S
    C291   O691      0.65799      .   S
    C283   O691      0.65799      .   S
    C263   O692      0.65805      .   S
    C255   O692      0.65805      .   S
    C261   O693      0.65805      .   S
    C253   O693      0.65805      .   S
    C259   O694      0.65801      .   S
    C251   O694      0.65801      .   S
    C257   O695      0.65801      .   S
    C249   O695      0.65801      .   S
    C183   O696      0.67192      .   S
    C311   O696      0.67192      .   S
    C181   O697      0.67192      .   S
    C309   O697      0.67192      .   S
    C177   O698      0.67192      .   S
    C305   O698      0.67192      .   S
    C179   O699      0.67193      .   S
    C307   O699      0.67193      .   S
    C159   O700      0.67185      .   S
    C279   O700      0.67185      .   S
    C157   O701      0.67184      .   S
    C277   O701      0.67184      .   S
    C155   O702      0.67150      .   S
    C275   O702      0.67150      .   S
    C153   O703      0.67150      .   S
    C273   O703      0.67150      .   S
    C377   O704      1.30534      .   S
    C9     O704      1.30534      .   S
    C379   O705      1.30514      .   S
    C11    O705      1.30514      .   S
    C381   O706      1.30515      .   S
    C13    O706      1.30515      .   S
    C383   O707      1.30514      .   S
    C15    O707      1.30514      .   S
    C255   O708      0.67989      .   S
    C279   O708      0.67989      .   S
    C255   O709      1.23310      .   S
    C15    O709      1.23310      .   S
    C251   O710      0.68003      .   S
    C275   O710      0.68003      .   S
    C251   O711      1.23311      .   S
    C11    O711      1.23311      .   S
    C253   O712      0.67990      .   S
    C277   O712      0.67990      .   S
    C253   O713      1.23310      .   S
    C13    O713      1.23310      .   S
    C249   O714      0.68002      .   S
    C273   O714      0.68002      .   S
    C249   O715      1.23311      .   S
    C9     O715      1.23311      .   S
    C287   O716      0.67983      .   S
    C311   O716      0.67983      .   S
    C287   O717      1.23231      .   S
    C3     O717      1.23231  1_455   S
    C285   O718      0.67983      .   S
    C309   O718      0.67983      .   S
    C285   O719      1.23231      .   S
    C1     O719      1.23231  1_455   S
    C281   O720      0.67983      .   S
    C305   O720      0.67983      .   S
    C281   O721      1.23225      .   S
    C5     O721      1.23225      .   S
    C283   O722      0.67983      .   S
    C307   O722      0.67983      .   S
    C283   O723      1.23225      .   S
    C7     O723      1.23225      .   S
    C55    O724      0.55072      .   S
    C173   O724      0.55072  1_545   S
    C53    O725      0.55054      .   S
    C175   O725      0.55054      .   S
    C51    O726      0.55072      .   S
    C169   O726      0.55072  1_545   S
    C49    O727      0.55054      .   S
    C171   O727      0.55054      .   S
    C81    O728      0.55097      .   S
    C195   O728      0.55097  1_565   S
    C87    O729      0.55053      .   S
    C197   O729      0.55053      .   S
    C85    O730      0.55071      .   S
    C199   O730      0.55071  1_565   S
    C83    O731      0.55052      .   S
    C193   O731      0.55052      .   S
    C305   O732      1.23342      .   S
    C9     O732      1.23342      .   S
    C275   O733      1.23314      .   S
    C7     O733      1.23314      .   S
    C273   O734      1.23314      .   S
    C5     O734      1.23314      .   S
    C307   O735      1.23342      .   S
    C11    O735      1.23342      .   S
    C309   O736      1.23343      .   S
    C13    O736      1.23343      .   S
    C311   O737      1.23344      .   S
    C15    O737      1.23344      .   S
    C277   O738      1.23311      .   S
    C1     O738      1.23311  1_455   S
    C279   O739      1.23310      .   S
    C3     O739      1.23310  1_455   S
    C173   O740      0.76344  1_545   S
    C199   O740      0.76344      .   S
    C173   O741      0.54947      .   S
    C45    O741      0.54947      .   S
    C171   O742      0.76337      .   S
    C193   O742      0.76337      .   S
    C171   O743      0.54947      .   S
    C43    O743      0.54947      .   S
    C169   O744      0.76344  1_545   S
    C195   O744      0.76344      .   S
    C169   O745      0.54947      .   S
    C41    O745      0.54947      .   S
    C175   O746      0.76336      .   S
    C197   O746      0.76336      .   S
    C175   O747      0.54946      .   S
    C47    O747      0.54946      .   S
    C193   O748      0.54946      .   S
    C73    O748      0.54946      .   S
    C195   O749      0.54946      .   S
    C75    O749      0.54946      .   S
    C199   O750      0.54940      .   S
    C79    O750      0.54940      .   S
    C197   O751      0.54939      .   S
    C77    O751      0.54939      .   S
    C1     O752      1.23304      .   S
    C337   O752      1.23304      .   S
    C1     O753      1.23226      .   S
    C345   O753      1.23226      .   S
    C3     O754      1.23305      .   S
    C339   O754      1.23305      .   S
    C3     O755      1.23226      .   S
    C347   O755      1.23226      .   S
    C5     O756      1.23305      .   S
    C341   O756      1.23305      .   S
    C5     O757      1.23224      .   S
    C349   O757      1.23224      .   S
    C7     O758      1.23305      .   S
    C343   O758      1.23305      .   S
    C7     O759      1.23224      .   S
    C351   O759      1.23224      .   S
    C9     O760      1.23351      .   S
    C369   O760      1.23351      .   S
    C9     O761      1.23317      .   S
    C313   O761      1.23317      .   S
    C9     O762      1.30514      .   S
    C385   O762      1.30514      .   S
    C15    O763      1.23303      .   S
    C375   O763      1.23303      .   S
    C15    O764      1.23311      .   S
    C319   O764      1.23311      .   S
    C15    O765      1.30514      .   S
    C391   O765      1.30514      .   S
    C13    O766      1.23344      .   S
    C373   O766      1.23344      .   S
    C13    O767      1.23304      .   S
    C317   O767      1.23304      .   S
    C13    O768      1.30513      .   S
    C389   O768      1.30513      .   S
    C11    O769      1.23350      .   S
    C371   O769      1.23350      .   S
    C11    O770      1.23318      .   S
    C315   O770      1.23318      .   S
    C11    O771      1.30515      .   S
    C387   O771      1.30515      .   S
    C107   O772      0.54947      .   S
    C219   O772      0.54947      .   S
    C109   O773      0.54947      .   S
    C221   O773      0.54947      .   S
    C105   O774      0.54947      .   S
    C217   O774      0.54947      .   S
    C111   O775      0.54947      .   S
    C223   O775      0.54947      .   S
    C143   O776      0.54947      .   S
    C247   O776      0.54947      .   S
    C141   O777      0.54947      .   S
    C245   O777      0.54947      .   S
    C139   O778      0.54940      .   S
    C243   O778      0.54940      .   S
    C137   O779      0.54940      .   S
    C241   O779      0.54940      .   S
    C245   O780      0.76346      .   S
    C223   O780      0.76346  1_565   S
    C245   O781      0.55069  1_545   S
    C151   O781      0.55069      .   S
    C245   O782      0.77072      .   S
    C237   O782      0.77072      .   S
    C247   O783      0.76337      .   S
    C221   O783      0.76337      .   S
    C247   O784      0.55050      .   S
    C149   O784      0.55050      .   S
    C247   O785      0.77072      .   S
    C239   O785      0.77072      .   S
    C241   O786      0.76344      .   S
    C219   O786      0.76344  1_565   S
    C241   O787      0.55069  1_545   S
    C147   O787      0.55069      .   S
    C241   O788      0.77071      .   S
    C233   O788      0.77071      .   S
    C243   O789      0.76336      .   S
    C217   O789      0.76336      .   S
    C243   O790      0.55050      .   S
    C145   O790      0.55050      .   S
    C243   O791      0.77071      .   S
    C235   O791      0.77071      .   S
    C217   O792      0.55060      .   S
    C115   O792      0.55060      .   S
    C217   O793      0.77071      .   S
    C213   O793      0.77071      .   S
    C219   O794      0.55072  1_565   S
    C113   O794      0.55072      .   S
    C219   O795      0.77071      .   S
    C215   O795      0.77071      .   S
    C221   O796      0.55052      .   S
    C119   O796      0.55052      .   S
    C221   O797      0.77073      .   S
    C209   O797      0.77073  1_455   S
    C223   O798      0.55071  1_565   S
    C117   O798      0.55071      .   S
    C223   O799      0.77073      .   S
    C211   O799      0.77073  1_455   S
    C375   O800      0.68008      .   S
    C351   O800      0.68008      .   S
    C375   O801      0.67223      .   S
    C231   O801      0.67223      .   S
    C343   O802      0.67989      .   S
    C319   O802      0.67989      .   S
    C343   O803      0.67186      .   S
    C207   O803      0.67186      .   S
    C337   O804      0.67986      .   S
    C313   O804      0.67986      .   S
    C337   O805      0.67185      .   S
    C201   O805      0.67185      .   S
    C341   O806      0.67992      .   S
    C317   O806      0.67992      .   S
    C341   O807      0.67185      .   S
    C205   O807      0.67185      .   S
    C339   O808      0.67985      .   S
    C315   O808      0.67985      .   S
    C339   O809      0.67186      .   S
    C203   O809      0.67186      .   S
    C373   O810      0.67980      .   S
    C349   O810      0.67980      .   S
    C373   O811      0.67192      .   S
    C229   O811      0.67192      .   S
    C371   O812      0.67982      .   S
    C347   O812      0.67982      .   S
    C371   O813      0.67192      .   S
    C227   O813      0.67192      .   S
    C369   O814      0.67981      .   S
    C345   O814      0.67981      .   S
    C369   O815      0.67192      .   S
    C225   O815      0.67192      .   S
    C349   O816      0.65805      .   S
    C357   O816      0.65805      .   S
    C351   O817      0.65804      .   S
    C359   O817      0.65804      .   S
    C317   O818      0.65807      .   S
    C325   O818      0.65807      .   S
    C319   O819      0.65802      .   S
    C327   O819      0.65802      .   S
    C347   O820      0.65797      .   S
    C355   O820      0.65797      .   S
    C345   O821      0.65797      .   S
    C353   O821      0.65797      .   S
    C315   O822      0.65801      .   S
    C323   O822      0.65801      .   S
    C313   O823      0.65802      .   S
    C321   O823      0.65802      .   S
    C205   O824      0.74476      .   S
    C213   O824      0.74476      .   S
    C205   O825      0.67531      .   S
    C333   O825      0.67531      .   S
    C203   O826      0.74477      .   S
    C211   O826      0.74477      .   S
    C203   O827      0.67531      .   S
    C331   O827      0.67531      .   S
    C207   O828      0.74476      .   S
    C215   O828      0.74476      .   S
    C207   O829      0.67526      .   S
    C335   O829      0.67526      .   S
    C201   O830      0.74477      .   S
    C209   O830      0.74477      .   S
    C201   O831      0.67531      .   S
    C329   O831      0.67531      .   S
    C231   O832      0.74479      .   S
    C239   O832      0.74479      .   S
    C231   O833      0.67478      .   S
    C367   O833      0.67478      .   S
    C229   O834      0.74479      .   S
    C237   O834      0.74479      .   S
    C229   O835      0.67478      .   S
    C365   O835      0.67478      .   S
    C227   O836      0.74481      .   S
    C235   O836      0.74481      .   S
    C227   O837      0.67531      .   S
    C363   O837      0.67531      .   S
    C225   O838      0.74482      .   S
    C233   O838      0.74482      .   S
    C225   O839      0.67531      .   S
    C361   O839      0.67531      .   S
    C325   O840      0.67748      .   S
    C333   O840      0.67748      .   S
    C327   O841      0.67709      .   S
    C335   O841      0.67709      .   S
    C323   O842      0.67743      .   S
    C331   O842      0.67743      .   S
    C321   O843      0.67742      .   S
    C329   O843      0.67742      .   S
    C353   O844      0.67744      .   S
    C361   O844      0.67744      .   S
    C355   O845      0.67744      .   S
    C363   O845      0.67744      .   S
    C357   O846      0.67740      .   S
    C365   O846      0.67740      .   S
    C359   O847      0.67741      .   S
    C367   O847      0.67741      .   S
    C95    O848      0.55034      .   S
    C211   O848      0.55034  1_455   S
    C93    O849      0.55034      .   S
    C209   O849      0.55034  1_455   S
    C91    O850      0.55025      .   S
    C215   O850      0.55025      .   S
    C89    O851      0.55025      .   S
    C213   O851      0.55025      .   S
    C121   O852      0.55051      .   S
    C233   O852      0.55051      .   S
    C127   O853      0.55027      .   S
    C239   O853      0.55027      .   S
    C123   O854      0.55027      .   S
    C235   O854      0.55027      .   S
    C125   O855      0.55027      .   S
    C237   O855      0.55027      .   S
    C211   O856      0.55040      .   S
    C99    O856      0.55040      .   S
    C209   O857      0.55040      .   S
    C97    O857      0.55040      .   S
    C213   O858      0.55040      .   S
    C101   O858      0.55040      .   S
    C215   O859      0.55040      .   S
    C103   O859      0.55040      .   S
    C237   O860      0.55038      .   S
    C133   O860      0.55038      .   S
    C239   O861      0.55037      .   S
    C135   O861      0.55037      .   S
    C235   O862      0.55038      .   S
    C131   O862      0.55038      .   S
    C233   O863      0.55038      .   S
    C129   O863      0.55038      .   S
    C335   O864      1.15252      .   S
    C20    O864      1.15252  1_554   S
    C333   O865      1.15202      .   S
    C22    O865      1.15202  1_554   S
    C331   O866      1.15218      .   S
    C16    O866      1.15218  1_554   S
    C329   O867      1.15203      .   S
    C18    O867      1.15203  1_554   S
    C367   O868      1.15318      .   S
    C22    O868      1.15318  1_554   S
    C365   O869      1.15317      .   S
    C20    O869      1.15317  1_564   S
    C361   O870      1.15259      .   S
    C16    O870      1.15259  1_564   S
    C363   O871      1.15259      .   S
    C18    O871      1.15259  1_554   S
