# CIF file generated by openbabel 2.4.90, see http://openbabel.sf.net
data_I
_chemical_name_common ''
_cell_length_a 18.591
_cell_length_b 14.43
_cell_length_c 17.459
_cell_angle_alpha 99.039
_cell_angle_beta 89.947
_cell_angle_gamma 108.708
_space_group_name_H-M_alt 'P 1'
_space_group_name_Hall 'P 1'
loop_
    _symmetry_equiv_pos_as_xyz
    x,y,z
loop_
    _atom_site_label
    _atom_site_type_symbol
    _atom_site_fract_x
    _atom_site_fract_y
    _atom_site_fract_z
    _atom_site_occupancy
    H0      H    0.33596   0.47800   0.32478   1.000
    H1      H    0.83596   0.47799   0.32478   1.000
    H2      H    0.45413   0.59643   0.45372   1.000
    H3      H    0.95413   0.59642   0.45373   1.000
    H4      H    0.02150   0.70997   0.37356   1.000
    H5      H    0.52150   0.70997   0.37350   1.000
    H6      H    0.02940   0.56575   0.25516   1.000
    H7      H    0.52940   0.56575   0.25516   1.000
    H8      H    0.31031   0.27591   0.27596   1.000
    H9      H    0.81032   0.27592   0.27595   1.000
    H10     H    0.22275   0.13666   0.18740   1.000
    H11     H    0.72276   0.13667   0.18741   1.000
    H12     H    0.40682   0.01325   0.15267   1.000
    H13     H    0.90681   0.01323   0.15268   1.000
    H14     H    0.48814   0.16155   0.24001   1.000
    H15     H    0.98813   0.16153   0.24002   1.000
    H16     H    0.07376   0.82414   0.06100   1.000
    H17     H    0.57377   0.82414   0.06100   1.000
    H18     H    0.14945   0.97573   0.15280   1.000
    H19     H    0.64945   0.97573   0.15280   1.000
    H20     H    0.35104   0.94219   0.04419   1.000
    H21     H    0.85104   0.94220   0.04410   1.000
    H22     H    0.26731   0.78979   0.96191   1.000
    H23     H    0.76731   0.78979   0.96190   1.000
    H24     H    0.09691   0.52101   0.17483   1.000
    H25     H    0.59691   0.52102   0.17483   1.000
    H26     H    0.15630   0.40277   0.04567   1.000
    H27     H    0.65631   0.40278   0.04568   1.000
    H28     H    0.16702   0.28928   0.12595   1.000
    H29     H    0.66703   0.28929   0.12595   1.000
    H30     H    0.24648   0.43369   0.24435   1.000
    H31     H    0.74649   0.43370   0.24430   1.000
    H32     H    0.17186   0.72374   0.22513   1.000
    H33     H    0.67187   0.72375   0.22513   1.000
    H34     H    0.15457   0.86339   0.31410   1.000
    H35     H    0.65458   0.86341   0.31415   1.000
    H36     H    0.40023   0.98584   0.34642   1.000
    H37     H    0.90024   0.98583   0.34645   1.000
    H38     H    0.40681   0.83729   0.25875   1.000
    H39     H    0.90682   0.83728   0.25877   1.000
    H40     H    0.16263   0.17643   0.44077   1.000
    H41     H    0.66265   0.17645   0.44076   1.000
    H42     H    0.16189   0.02435   0.34880   1.000
    H43     H    0.66191   0.02437   0.34880   1.000
    H44     H    0.38088   0.05739   0.45510   1.000
    H45     H    0.88088   0.05738   0.45510   1.000
    H46     H    0.37398   0.21032   0.53750   1.000
    H47     H    0.87398   0.21031   0.53753   1.000
    H48     H    0.16406   0.52200   0.67520   1.000
    H49     H    0.66406   0.52200   0.67520   1.000
    H50     H    0.04589   0.40359   0.54625   1.000
    H51     H    0.54590   0.40359   0.54620   1.000
    H52     H    0.47852   0.29003   0.62640   1.000
    H53     H    0.97852   0.29003   0.62640   1.000
    H54     H    0.47062   0.43423   0.74482   1.000
    H55     H    0.97063   0.43423   0.74482   1.000
    H56     H    0.18970   0.72409   0.72400   1.000
    H57     H    0.68970   0.72409   0.72404   1.000
    H58     H    0.27726   0.86334   0.81257   1.000
    H59     H    0.77726   0.86334   0.81257   1.000
    H60     H    0.09320   0.98677   0.84730   1.000
    H61     H    0.59320   0.98676   0.84732   1.000
    H62     H    0.01188   0.83847   0.75998   1.000
    H63     H    0.51188   0.83846   0.75998   1.000
    H64     H    0.42625   0.17587   0.93890   1.000
    H65     H    0.92625   0.17586   0.93899   1.000
    H66     H    0.35057   0.02428   0.84719   1.000
    H67     H    0.85057   0.02427   0.84700   1.000
    H68     H    0.14898   0.05780   0.95580   1.000
    H69     H    0.64898   0.05781   0.95580   1.000
    H70     H    0.23271   0.21020   0.03809   1.000
    H71     H    0.73271   0.21022   0.03800   1.000
    C72     C    0.82779   0.16547   0.49576   1.000
    C73     C    0.11275   0.51325   0.63997   1.000
    C74     C    0.61275   0.51325   0.63997   1.000
    C75     C    0.08046   0.40543   0.59805   1.000
    H76     H    0.40310   0.47897   0.82516   1.000
    H77     H    0.90311   0.47898   0.82517   1.000
    H78     H    0.34371   0.59721   0.95431   1.000
    H79     H    0.84371   0.59722   0.95432   1.000
    H80     H    0.33298   0.71070   0.87404   1.000
    H81     H    0.83299   0.71071   0.87404   1.000
    H82     H    0.25351   0.56628   0.75564   1.000
    H83     H    0.75352   0.56630   0.75564   1.000
    H84     H    0.32814   0.27628   0.77486   1.000
    H85     H    0.82815   0.27627   0.77488   1.000
    H86     H    0.34545   0.13663   0.68580   1.000
    H87     H    0.84546   0.13662   0.68580   1.000
    H88     H    0.09979   0.01417   0.65355   1.000
    H89     H    0.59980   0.01418   0.65355   1.000
    H90     H    0.09320   0.16272   0.74121   1.000
    H91     H    0.59321   0.16273   0.74121   1.000
    H92     H    0.33739   0.82359   0.55920   1.000
    H93     H    0.83739   0.82357   0.55920   1.000
    H94     H    0.33814   0.97567   0.65117   1.000
    H95     H    0.83814   0.97565   0.65119   1.000
    H96     H    0.11914   0.94263   0.54489   1.000
    H97     H    0.61916   0.94265   0.54480   1.000
    H98     H    0.12604   0.78970   0.46248   1.000
    H99     H    0.62606   0.78972   0.46248   1.000
    C100    C    0.22346   0.06117   0.66040   1.000
    C101    C    0.72348   0.06117   0.66040   1.000
    C102    C    0.15230   0.07135   0.67759   1.000
    C103    C    0.65231   0.07135   0.67760   1.000
    C104    C    0.14803   0.15367   0.72782   1.000
    C105    C    0.38727   0.48676   0.36002   1.000
    C106    C    0.88727   0.48676   0.36002   1.000
    C107    C    0.41956   0.59458   0.40192   1.000
    C108    C    0.91956   0.59458   0.40193   1.000
    C109    C    0.47604   0.64515   0.34386   1.000
    C110    C    0.97605   0.64515   0.34387   1.000
    C111    C    0.00857   0.56130   0.31380   1.000
    C112    C    0.50858   0.56130   0.31380   1.000
    C113    C    0.36796   0.41287   0.41660   1.000
    C114    C    0.86796   0.41287   0.41660   1.000
    C115    C    0.36166   0.64492   0.43195   1.000
    C116    C    0.86166   0.64492   0.43195   1.000
    C117    C    0.44383   0.67648   0.27476   1.000
    C118    C    0.94383   0.67649   0.27477   1.000
    C119    C    0.07350   0.56025   0.36807   1.000
    C120    C    0.57351   0.56026   0.36807   1.000
    C121    C    0.33014   0.21659   0.24742   1.000
    C122    C    0.83015   0.21660   0.24742   1.000
    C123    C    0.28062   0.13673   0.19745   1.000
    C124    C    0.78063   0.13674   0.19740   1.000
    C125    C    0.30678   0.06075   0.16070   1.000
    C126    C    0.80678   0.06075   0.16075   1.000
    C127    C    0.38307   0.07058   0.17717   1.000
    C128    C    0.88307   0.07057   0.17718   1.000
    C129    C    0.42875   0.15275   0.22721   1.000
    C130    C    0.92875   0.15274   0.22722   1.000
    C131    C    0.13552   0.85371   0.06043   1.000
    C132    C    0.63552   0.85371   0.06043   1.000
    C133    C    0.17842   0.93852   0.11038   1.000
    C134    C    0.67842   0.93852   0.11030   1.000
    C135    C    0.25793   0.97314   0.10724   1.000
    C136    C    0.75793   0.97314   0.10724   1.000
    C137    C    0.29003   0.91923   0.05132   1.000
    C138    C    0.79003   0.91924   0.05131   1.000
    C139    C    0.24382   0.83460   0.00417   1.000
    C140    C    0.74382   0.83461   0.00417   1.000
    C141    C    0.14387   0.51252   0.13940   1.000
    C142    C    0.64388   0.51253   0.13940   1.000
    C143    C    0.12262   0.40472   0.09752   1.000
    C144    C    0.62263   0.40473   0.09752   1.000
    C145    C    0.15381   0.35414   0.15563   1.000
    C146    C    0.65382   0.35414   0.15563   1.000
    C147    C    0.22807   0.43800   0.18564   1.000
    C148    C    0.72808   0.43801   0.18564   1.000
    C149    C    0.16117   0.58681   0.08310   1.000
    C150    C    0.66118   0.58682   0.08310   1.000
    C151    C    0.03966   0.35473   0.06780   1.000
    C152    C    0.53967   0.35473   0.06780   1.000
    C153    C    0.10577   0.32282   0.22470   1.000
    C154    C    0.60578   0.32282   0.22475   1.000
    C155    C    0.29382   0.43915   0.13158   1.000
    C156    C    0.79382   0.43916   0.13158   1.000
    C157    C    0.22146   0.78296   0.25320   1.000
    C158    C    0.72148   0.78297   0.25320   1.000
    C159    C    0.21224   0.86301   0.30345   1.000
    C160    C    0.71225   0.86302   0.30340   1.000
    C161    C    0.27655   0.93885   0.33957   1.000
    C162    C    0.77657   0.93885   0.33958   1.000
    C163    C    0.34772   0.92867   0.32238   1.000
    C164    C    0.84773   0.92866   0.32240   1.000
    C165    C    0.35198   0.84634   0.27215   1.000
    C166    C    0.85199   0.84633   0.27217   1.000
    C167    C    0.20956   0.14660   0.44075   1.000
    C168    C    0.70958   0.14661   0.44075   1.000
    C169    C    0.20971   0.06155   0.39076   1.000
    C170    C    0.70973   0.06156   0.39076   1.000
    C171    C    0.27189   0.02666   0.39324   1.000
    C172    C    0.77191   0.02666   0.39324   1.000
    C173    C    0.33133   0.08056   0.44854   1.000
    C174    C    0.83133   0.08055   0.44856   1.000
    C175    C    0.32779   0.16547   0.49574   1.000
    C176    C    0.58047   0.40543   0.59805   1.000
    C177    C    0.02397   0.35484   0.65610   1.000
    C178    C    0.52398   0.35484   0.65610   1.000
    C179    C    0.49144   0.43869   0.68618   1.000
    C180    C    0.99145   0.43870   0.68618   1.000
    C181    C    0.13206   0.58715   0.58339   1.000
    C182    C    0.63206   0.58715   0.58339   1.000
    C183    C    0.13836   0.35510   0.56803   1.000
    C184    C    0.63837   0.35510   0.56803   1.000
    C185    C    0.05618   0.32350   0.72520   1.000
    C186    C    0.55619   0.32350   0.72520   1.000
    C187    C    0.42651   0.43975   0.63193   1.000
    C188    C    0.92651   0.43975   0.63193   1.000
    C189    C    0.16987   0.78340   0.75257   1.000
    C190    C    0.66987   0.78341   0.75258   1.000
    C191    C    0.21940   0.86326   0.80254   1.000
    C192    C    0.71940   0.86327   0.80255   1.000
    C193    C    0.19324   0.93926   0.83924   1.000
    C194    C    0.69324   0.93926   0.83925   1.000
    C195    C    0.11695   0.92943   0.82280   1.000
    C196    C    0.61695   0.92943   0.82282   1.000
    C197    C    0.07127   0.84726   0.77278   1.000
    C198    C    0.57127   0.84726   0.77278   1.000
    C199    C    0.36450   0.14630   0.93956   1.000
    C200    C    0.86450   0.14630   0.93956   1.000
    C201    C    0.32160   0.06149   0.88961   1.000
    C202    C    0.82160   0.06149   0.88962   1.000
    C203    C    0.24209   0.02686   0.89275   1.000
    C204    C    0.74209   0.02686   0.89275   1.000
    C205    C    0.20999   0.08077   0.94868   1.000
    C206    C    0.70999   0.08077   0.94867   1.000
    C207    C    0.25620   0.16540   0.99583   1.000
    C208    C    0.75620   0.16540   0.99582   1.000
    C209    C    0.35613   0.48746   0.86050   1.000
    C210    C    0.85614   0.48747   0.86059   1.000
    C211    C    0.37738   0.59526   0.90247   1.000
    C212    C    0.87739   0.59527   0.90247   1.000
    C213    C    0.34619   0.64585   0.84436   1.000
    C214    C    0.84620   0.64585   0.84436   1.000
    C215    C    0.27192   0.56198   0.81435   1.000
    C216    C    0.77193   0.56199   0.81435   1.000
    C217    C    0.33883   0.41318   0.91689   1.000
    C218    C    0.83884   0.41318   0.91689   1.000
    C219    C    0.46034   0.64527   0.93219   1.000
    C220    C    0.96035   0.64528   0.93219   1.000
    C221    C    0.39422   0.67718   0.77524   1.000
    C222    C    0.89424   0.67718   0.77525   1.000
    C223    C    0.20619   0.56083   0.86842   1.000
    C224    C    0.70620   0.56084   0.86842   1.000
    C225    C    0.27854   0.21706   0.74670   1.000
    C226    C    0.77855   0.21706   0.74678   1.000
    C227    C    0.28778   0.13701   0.69654   1.000
    C228    C    0.78779   0.13700   0.69655   1.000
    C229    C    0.64804   0.15368   0.72782   1.000
    C230    C    0.29046   0.85342   0.55923   1.000
    C231    C    0.79046   0.85342   0.55925   1.000
    C232    C    0.29031   0.93847   0.60922   1.000
    C233    C    0.79032   0.93846   0.60924   1.000
    C234    C    0.22813   0.97336   0.60675   1.000
    C235    C    0.72814   0.97336   0.60676   1.000
    C236    C    0.16870   0.91946   0.55145   1.000
    C237    C    0.66871   0.91947   0.55145   1.000
    C238    C    0.17223   0.83454   0.50420   1.000
    C239    C    0.67225   0.83456   0.50424   1.000
    N240    N    0.40320   0.22535   0.26267   1.000
    N241    N    0.90320   0.22535   0.26267   1.000
    N242    N    0.16754   0.80154   0.00816   1.000
    N243    N    0.66754   0.80155   0.00816   1.000
    N244    N    0.28997   0.77390   0.23720   1.000
    N245    N    0.78999   0.77390   0.23725   1.000
    N246    N    0.26802   0.19875   0.49239   1.000
    N247    N    0.76803   0.19875   0.49239   1.000
    N248    N    0.09681   0.77465   0.73733   1.000
    N249    N    0.59681   0.77465   0.73733   1.000
    N250    N    0.33248   0.19846   0.99183   1.000
    N251    N    0.83248   0.19846   0.99183   1.000
    N252    N    0.21003   0.22611   0.76274   1.000
    N253    N    0.71004   0.22611   0.76274   1.000
    N254    N    0.23200   0.80127   0.50760   1.000
    N255    N    0.73201   0.80127   0.50760   1.000
    O256    O    0.44486   0.47053   0.30811   1.000
    O257    O    0.94487   0.47052   0.30812   1.000
    O258    O    0.40579   0.35449   0.42029   1.000
    O259    O    0.90579   0.35448   0.42029   1.000
    O260    O    0.31208   0.41713   0.45752   1.000
    O261    O    0.81208   0.41713   0.45752   1.000
    O262    O    0.29399   0.60954   0.40051   1.000
    O263    O    0.79400   0.60954   0.40051   1.000
    O264    O    0.38397   0.71824   0.48612   1.000
    O265    O    0.88398   0.71824   0.48610   1.000
    O266    O    0.37393   0.63237   0.25422   1.000
    O267    O    0.87394   0.63237   0.25422   1.000
    O268    O    0.49047   0.74285   0.24286   1.000
    O269    O    0.99047   0.74286   0.24288   1.000
    O270    O    0.12954   0.64174   0.37999   1.000
    O271    O    0.62954   0.64174   0.37999   1.000
    O272    O    0.06870   0.48414   0.39672   1.000
    O273    O    0.56871   0.48414   0.39672   1.000
    O274    O    0.20961   0.52879   0.19105   1.000
    O275    O    0.70962   0.52880   0.19105   1.000
    O276    O    0.22804   0.64537   0.07954   1.000
    O277    O    0.72805   0.64538   0.07954   1.000
    O278    O    0.10312   0.58287   0.04252   1.000
    O279    O    0.60313   0.58288   0.04252   1.000
    O280    O    0.48993   0.39058   0.09949   1.000
    O281    O    0.98993   0.39058   0.09949   1.000
    O282    O    0.02498   0.28133   0.01365   1.000
    O283    O    0.52499   0.28134   0.01365   1.000
    O284    O    0.05800   0.36723   0.24537   1.000
    O285    O    0.55801   0.36723   0.24537   1.000
    O286    O    0.11898   0.25622   0.25660   1.000
    O287    O    0.61899   0.25622   0.25660   1.000
    O288    O    0.30946   0.35778   0.11981   1.000
    O289    O    0.80947   0.35779   0.11981   1.000
    O290    O    0.32702   0.51539   0.10310   1.000
    O291    O    0.82703   0.51540   0.10310   1.000
    O292    O    0.05515   0.52947   0.69187   1.000
    O293    O    0.55515   0.52947   0.69186   1.000
    O294    O    0.09423   0.64553   0.57972   1.000
    O295    O    0.59423   0.64554   0.57972   1.000
    O296    O    0.18794   0.58290   0.54248   1.000
    O297    O    0.68795   0.58290   0.54248   1.000
    O298    O    0.20602   0.39048   0.59948   1.000
    O299    O    0.70602   0.39048   0.59948   1.000
    O300    O    0.11605   0.28177   0.51386   1.000
    O301    O    0.61605   0.28177   0.51386   1.000
    O302    O    0.12607   0.36764   0.74577   1.000
    O303    O    0.62607   0.36764   0.74577   1.000
    O304    O    0.00955   0.25711   0.75708   1.000
    O305    O    0.50955   0.25711   0.75708   1.000
    O306    O    0.37047   0.35827   0.62000   1.000
    O307    O    0.87047   0.35827   0.62002   1.000
    O308    O    0.43131   0.51587   0.60328   1.000
    O309    O    0.93131   0.51587   0.60329   1.000
    O310    O    0.29039   0.47119   0.80893   1.000
    O311    O    0.79040   0.47120   0.80894   1.000
    O312    O    0.27196   0.35463   0.92046   1.000
    O313    O    0.77196   0.35463   0.92046   1.000
    O314    O    0.39688   0.41713   0.95748   1.000
    O315    O    0.89688   0.41713   0.95748   1.000
    O316    O    0.01008   0.60943   0.90050   1.000
    O317    O    0.51009   0.60942   0.90051   1.000
    O318    O    0.47502   0.71868   0.98633   1.000
    O319    O    0.97503   0.71868   0.98630   1.000
    O320    O    0.44200   0.63277   0.75460   1.000
    O321    O    0.94201   0.63277   0.75462   1.000
    O322    O    0.38102   0.74378   0.74338   1.000
    O323    O    0.88103   0.74378   0.74338   1.000
    O324    O    0.19054   0.64220   0.88020   1.000
    O325    O    0.69055   0.64221   0.88020   1.000
    O326    O    0.17299   0.48458   0.89690   1.000
    O327    O    0.67300   0.48459   0.89690   1.000
loop_
    _geom_bond_atom_site_label_1
    _geom_bond_atom_site_label_2
    _geom_bond_distance
    _geom_bond_site_symmetry_2
    _ccdc_geom_bond_type
    C139   N242      1.34903      .   S
    C139   C137      1.38545      .   S
    C139   H22       1.08801  1_554   S
    C140   N243      1.34903      .   S
    C140   C138      1.38536      .   S
    C140   H23       1.08809  1_554   S
    N242   C131      1.35072      .   S
    N243   C132      1.35069      .   S
    O282   C151      1.26113      .   S
    O283   C152      1.26112      .   S
    H71    C208      1.08719  1_554   S
    H70    C207      1.08797  1_554   S
    O278   C149      1.27243      .   S
    O279   C150      1.27243      .   S
    H21    C138      1.08805      .   S
    H20    C137      1.08784      .   S
    H26    C143      1.10202      .   S
    H27    C144      1.10188      .   S
    C138   C136      1.40455      .   S
    C137   C135      1.40446      .   S
    C131   H16       1.08958      .   S
    C131   C133      1.39074      .   S
    C132   H17       1.08958      .   S
    C132   C134      1.39005      .   S
    C151   C143      1.52920      .   S
    C151   O281      1.28240  1_455   S
    C152   C144      1.52921      .   S
    C152   O280      1.28260      .   S
    O277   C150      1.26726      .   S
    O276   C149      1.26726      .   S
    C149   C141      1.52580      .   S
    C150   C142      1.52580      .   S
    C144   C142      1.53606      .   S
    C144   C146      1.55036      .   S
    C143   C141      1.53604      .   S
    C143   C145      1.55038      .   S
    O290   C155      1.25477      .   S
    O291   C156      1.25476      .   S
    C136   C134      1.40433      .   S
    C136   C126      1.47974  1_565   S
    C135   C133      1.40446      .   S
    C135   C125      1.47933  1_565   S
    C134   H19       1.09015      .   S
    C133   H18       1.08932      .   S
    O288   C155      1.28402      .   S
    O289   C156      1.28402      .   S
    H29    C146      1.09516      .   S
    H28    C145      1.09514      .   S
    C155   C147      1.54098      .   S
    C156   C148      1.54095      .   S
    C142   H25       1.09719      .   S
    C142   O275      1.45376      .   S
    C141   H24       1.09717      .   S
    C141   O274      1.45376      .   S
    H12    C127      1.08867      .   S
    H13    C128      1.08869      .   S
    C145   C147      1.54124      .   S
    C145   C153      1.53830      .   S
    C146   C148      1.54124      .   S
    C146   C154      1.53903      .   S
    C125   C127      1.40463      .   S
    C125   C123      1.40391      .   S
    C126   C128      1.40449      .   S
    C126   C124      1.40336      .   S
    C127   C129      1.38579      .   S
    C128   C130      1.38578      .   S
    C148   O275      1.44667      .   S
    C148   H31       1.09733      .   S
    C147   O274      1.44666      .   S
    C147   H30       1.09816      .   S
    H10    C123      1.08981      .   S
    H11    C124      1.08963      .   S
    C124   C122      1.39385      .   S
    C123   C121      1.39343      .   S
    C153   O284      1.27343      .   S
    C153   O286      1.27040      .   S
    C154   O285      1.27325      .   S
    C154   O287      1.26993      .   S
    H32    C157      1.08839      .   S
    H33    C158      1.08835      .   S
    C129   H14       1.08935      .   S
    C129   N240      1.34957      .   S
    C130   H15       1.08931      .   S
    C130   N241      1.34958      .   S
    N244   C157      1.34602      .   S
    N244   C165      1.34971      .   S
    N245   C158      1.34591      .   S
    N245   C166      1.34948      .   S
    O268   C117      1.27010      .   S
    O269   C118      1.27006      .   S
    C121   N240      1.34603      .   S
    C121   H8        1.08847      .   S
    C122   N241      1.34601      .   S
    C122   H9        1.08846      .   S
    C157   C159      1.39357      .   S
    C158   C160      1.39312      .   S
    O266   C117      1.27308      .   S
    O267   C118      1.27309      .   S
    H6     C111      1.09825      .   S
    H7     C112      1.09825      .   S
    H38    C165      1.08914      .   S
    H39    C166      1.08917      .   S
    C165   C163      1.38547      .   S
    C166   C164      1.38547      .   S
    C117   C109      1.53782      .   S
    C118   C110      1.53785      .   S
    C160   H35       1.08981      .   S
    C160   C162      1.40392      .   S
    C159   H34       1.08951      .   S
    C159   C161      1.40361      .   S
    O256   C112      1.44665      .   S
    O256   C105      1.45442      .   S
    O257   C111      1.44653  1_655   S
    O257   C106      1.45432      .   S
    C111   C110      1.54093  1_455   S
    C111   C119      1.54058      .   S
    C112   C109      1.54106      .   S
    C112   C120      1.54056      .   S
    C163   C161      1.40432      .   S
    C163   H36       1.08864      .   S
    C164   C162      1.40429      .   S
    C164   H37       1.08865      .   S
    H1     C106      1.09713      .   S
    H0     C105      1.09715      .   S
    C161   C171      1.47927  1_565   S
    C162   C172      1.47919  1_565   S
    C109   H5        1.09479      .   S
    C109   C107      1.54973      .   S
    C110   H4        1.09494  1_655   S
    C110   C108      1.54976      .   S
    H43    C170      1.08933      .   S
    H42    C169      1.08943      .   S
    C105   C107      1.53633      .   S
    C105   C113      1.52518      .   S
    C106   C108      1.53638      .   S
    C106   C114      1.52521      .   S
    C120   O271      1.28407      .   S
    C120   O273      1.25464      .   S
    C119   O270      1.28407      .   S
    C119   O272      1.25466      .   S
    C170   C172      1.40428      .   S
    C170   C168      1.39051      .   S
    C169   C171      1.40430      .   S
    C169   C167      1.39052      .   S
    C171   C173      1.40451      .   S
    C172   C174      1.40461      .   S
    O263   C116      1.28273      .   S
    O262   C115      1.28275      .   S
    C107   C115      1.53039      .   S
    C107   H2        1.10189      .   S
    C108   C116      1.53036      .   S
    C108   H3        1.10187      .   S
    C114   O259      1.26718      .   S
    C114   O261      1.27253      .   S
    C113   O258      1.26718      .   S
    C113   O260      1.27253      .   S
    C115   O264      1.26128      .   S
    C116   O265      1.26105      .   S
    C167   H40       1.08973      .   S
    C167   N246      1.35069      .   S
    C168   H41       1.08972      .   S
    C168   N247      1.35058      .   S
    C173   H44       1.08782      .   S
    C173   C175      1.38533      .   S
    C174   H45       1.08773      .   S
    C174   C72       1.38532      .   S
    H98    C238      1.08784      .   S
    H99    C239      1.08817      .   S
    N247   C72       1.34900      .   S
    N246   C175      1.34898      .   S
    C175   H46       1.08822      .   S
    C72    H47       1.08823      .   S
    C238   N254      1.34906      .   S
    C238   C236      1.38571      .   S
    C239   N255      1.34898      .   S
    C239   C237      1.38538      .   S
    N255   C231      1.35074      .   S
    N254   C230      1.35062      .   S
    O300   C183      1.26128      .   S
    O301   C184      1.26128      .   S
    O296   C181      1.27246      .   S
    O297   C182      1.27246      .   S
    H97    C237      1.08804      .   S
    H96    C236      1.08782      .   S
    H51    C176      1.10257      .   S
    H50    C75       1.10185      .   S
    C237   C235      1.40453      .   S
    C236   C234      1.40451      .   S
    H93    C231      1.08969      .   S
    H92    C230      1.08972      .   S
    C230   C232      1.39051      .   S
    C231   C233      1.39048      .   S
    C183   C75       1.53036      .   S
    C183   O298      1.28273      .   S
    C184   C176      1.53034      .   S
    C184   O299      1.28273      .   S
    O294   C181      1.26714      .   S
    O295   C182      1.26714      .   S
    C182   C74       1.52535      .   S
    C181   C73       1.52533      .   S
    C176   C74       1.53637      .   S
    C176   C178      1.54974      .   S
    C75    C73       1.53637      .   S
    C75    C177      1.54973      .   S
    O308   C187      1.25472      .   S
    O309   C188      1.25463      .   S
    C234   C232      1.40429      .   S
    C234   C100      1.47909  1_565   S
    C235   C233      1.40429      .   S
    C235   C101      1.47901  1_565   S
    C232   H94       1.08935      .   S
    C233   H95       1.08927      .   S
    O306   C187      1.28409      .   S
    O307   C188      1.28407      .   S
    H53    C177      1.09494  1_655   S
    H52    C178      1.09505      .   S
    C187   C179      1.54051      .   S
    C188   C180      1.54049      .   S
    C74    H49       1.09705      .   S
    C74    O293      1.45421      .   S
    C73    H48       1.09706      .   S
    C73    O292      1.45429      .   S
    H89    C103      1.08865      .   S
    H88    C102      1.08861      .   S
    C178   C179      1.54109      .   S
    C178   C186      1.53790      .   S
    C177   C180      1.54093  1_455   S
    C177   C185      1.53792      .   S
    C100   C102      1.40433      .   S
    C100   C227      1.40370      .   S
    C101   C103      1.40439      .   S
    C101   C228      1.40373      .   S
    C102   C104      1.38550      .   S
    C103   C229      1.38544      .   S
    H87    C228      1.08985      .   S
    H86    C227      1.08979      .   S
    C180   O292      1.44649  1_655   S
    C180   H55       1.09823      .   S
    C179   O293      1.44663      .   S
    C179   H54       1.09823      .   S
    C227   C225      1.39280      .   S
    C228   C226      1.39344      .   S
    H56    C189      1.08866      .   S
    H57    C190      1.08851      .   S
    C186   O303      1.27309      .   S
    C186   O305      1.27009      .   S
    C185   O302      1.27309      .   S
    C185   O304      1.27010      .   S
    C104   H90       1.08915      .   S
    C104   N252      1.34950      .   S
    C229   H91       1.08917      .   S
    C229   N253      1.34948      .   S
    N248   C189      1.34599      .   S
    N248   C197      1.34955      .   S
    N249   C190      1.34600      .   S
    N249   C198      1.34956      .   S
    O323   C222      1.27014      .   S
    O322   C221      1.27008      .   S
    C225   N252      1.34619      .   S
    C225   H84       1.08888      .   S
    C226   N253      1.34595      .   S
    C226   H85       1.08852      .   S
    C189   C191      1.39345      .   S
    C190   C192      1.39346      .   S
    O320   C221      1.27333      .   S
    O321   C222      1.27329      .   S
    H82    C215      1.09819      .   S
    H83    C216      1.09818      .   S
    H63    C198      1.08933      .   S
    H62    C197      1.08934      .   S
    C197   C195      1.38565      .   S
    C198   C196      1.38582      .   S
    C221   C213      1.53905      .   S
    C222   C214      1.53892      .   S
    C191   H58       1.08976      .   S
    C191   C193      1.40364      .   S
    C192   H59       1.08973      .   S
    C192   C194      1.40365      .   S
    O310   C215      1.44666      .   S
    O310   C209      1.45292      .   S
    O311   C216      1.44669      .   S
    O311   C210      1.45374      .   S
    C215   C213      1.54126      .   S
    C215   C223      1.54100      .   S
    C216   C214      1.54125      .   S
    C216   C224      1.54102      .   S
    C195   C193      1.40454      .   S
    C195   H60       1.08869      .   S
    C196   C194      1.40450      .   S
    C196   H61       1.08869      .   S
    H76    C209      1.09634      .   S
    H77    C210      1.09708      .   S
    C193   C203      1.47974  1_565   S
    C194   C204      1.47967  1_565   S
    C214   H81       1.09514      .   S
    C214   C212      1.55038      .   S
    C213   H80       1.09514      .   S
    C213   C211      1.55038      .   S
    H67    C202      1.09142      .   S
    H66    C201      1.08930      .   S
    C209   C211      1.53658      .   S
    C209   C217      1.52692      .   S
    C210   C212      1.53607      .   S
    C210   C218      1.52575      .   S
    C223   O324      1.28399      .   S
    C223   O326      1.25473      .   S
    C224   O325      1.28401      .   S
    C224   O327      1.25475      .   S
    C201   C203      1.40446      .   S
    C201   C199      1.39073      .   S
    C202   C204      1.40446      .   S
    C202   C200      1.39064      .   S
    C203   C205      1.40453      .   S
    C204   C206      1.40446      .   S
    O316   C220      1.28247  1_455   S
    O317   C219      1.28260      .   S
    C211   C219      1.52921      .   S
    C211   H78       1.10187      .   S
    C212   C220      1.52922      .   S
    C212   H79       1.10201      .   S
    C217   O312      1.26728      .   S
    C217   O314      1.27251      .   S
    C218   O313      1.26728      .   S
    C218   O315      1.27250      .   S
    C219   O318      1.26112      .   S
    C220   O319      1.26077      .   S
    H64    C199      1.08967      .   S
    H65    C200      1.08958      .   S
    C200   N251      1.35072      .   S
    C199   N250      1.35067      .   S
    C206   H69       1.08784      .   S
    C206   C208      1.38543      .   S
    C205   H68       1.08781      .   S
    C205   C207      1.38543      .   S
    N250   C207      1.34905      .   S
    N251   C208      1.34903      .   S
