# CIF file generated by openbabel 2.4.90, see http://openbabel.sf.net
data_I
_chemical_name_common ''
_cell_length_a 18.591
_cell_length_b 14.43
_cell_length_c 17.459
_cell_angle_alpha 99.039
_cell_angle_beta 89.947
_cell_angle_gamma 108.708
_space_group_name_H-M_alt 'P 1'
_space_group_name_Hall 'P 1'
loop_
    _symmetry_equiv_pos_as_xyz
    x,y,z
loop_
    _atom_site_label
    _atom_site_type_symbol
    _atom_site_fract_x
    _atom_site_fract_y
    _atom_site_fract_z
    _atom_site_occupancy
    Zn0     Zn   0.98760   0.34785   0.33930   1.000
    Zn1     Zn   0.28392   0.34436   0.54646   1.000
    Zn2     Zn   0.78393   0.34436   0.54646   1.000
    Zn3     Zn   0.31301   0.65152   0.16034   1.000
    Zn4     Zn   0.81302   0.65153   0.16034   1.000
    Zn5     Zn   0.11059   0.65601   0.95378   1.000
    Zn6     Zn   0.61059   0.65602   0.95378   1.000
    Zn7     Zn   0.01241   0.65216   0.66062   1.000
    Zn8     Zn   0.51242   0.65216   0.66060   1.000
    Zn9     Zn   0.21609   0.65566   0.45354   1.000
    Zn10    Zn   0.71610   0.65566   0.45354   1.000
    Zn11    Zn   0.18699   0.34847   0.83966   1.000
    Zn12    Zn   0.68700   0.34848   0.83966   1.000
    Zn13    Zn   0.38942   0.34399   0.04620   1.000
    Zn14    Zn   0.88942   0.34400   0.04620   1.000
    H15     H    0.07398   0.25056   0.33942   1.000
    H16     H    0.57398   0.25056   0.33942   1.000
    H17     H    0.06244   0.26931   0.43219   1.000
    H18     H    0.56245   0.26931   0.43210   1.000
    Zn19    Zn   0.48760   0.34786   0.33930   1.000
    H20     H    0.44816   0.74852   0.16030   1.000
    H21     H    0.94817   0.74854   0.16037   1.000
    H22     H    0.42740   0.73066   0.06760   1.000
    H23     H    0.92742   0.73066   0.06766   1.000
    H24     H    0.42603   0.74945   0.66058   1.000
    H25     H    0.92604   0.74945   0.66058   1.000
    H26     H    0.43757   0.73070   0.56781   1.000
    H27     H    0.93758   0.73070   0.56781   1.000
    H28     H    0.05184   0.25142   0.83960   1.000
    H29     H    0.55185   0.25143   0.83960   1.000
    H30     H    0.07257   0.26933   0.93231   1.000
    H31     H    0.57258   0.26934   0.93231   1.000
    O32     O    0.03481   0.25029   0.37989   1.000
    O33     O    0.53481   0.25029   0.37989   1.000
    O34     O    0.40917   0.74921   0.12007   1.000
    O35     O    0.90918   0.74922   0.12008   1.000
    O36     O    0.46520   0.74972   0.62011   1.000
    O37     O    0.96521   0.74972   0.62011   1.000
    O38     O    0.09083   0.25076   0.87991   1.000
    O39     O    0.59084   0.25077   0.87991   1.000
loop_
    _geom_bond_atom_site_label_1
    _geom_bond_atom_site_label_2
    _geom_bond_distance
    _geom_bond_site_symmetry_2
    _ccdc_geom_bond_type
    H22    O34       1.00319      .   S
    H23    O35       1.00248      .   S
    O34    H20       1.01329      .   S
    O35    H21       1.01397      .   S
    H16    O33       1.01373      .   S
    H15    O32       1.01375      .   S
    O32    H17       1.00236      .   S
    O33    H18       1.00100      .   S
    H27    O37       1.00232      .   S
    H26    O36       1.00230      .   S
    O36    H24       1.01379      .   S
    O37    H25       1.01379      .   S
    H28    O38       1.01400      .   S
    H29    O39       1.01399      .   S
    O39    H31       1.00233      .   S
    O38    H30       1.00232      .   S
    O32    Zn0       2.08837  1_455   S
    O33    Zn19      2.08854      .   S
    O34    Zn3       2.09036      .   S
    O35    Zn4       2.09032      .   S
    O36    Zn8       2.08784      .   S
    O37    Zn7       2.08783  1_655   S
    O38    Zn11      2.09042      .   S
    O39    Zn12      2.09044      .   S
