# CIF file generated by openbabel 2.4.90, see http://openbabel.sf.net
data_I
_chemical_name_common ''
_cell_length_a 18.591
_cell_length_b 14.43
_cell_length_c 17.459
_cell_angle_alpha 99.039
_cell_angle_beta 89.947
_cell_angle_gamma 108.708
_space_group_name_H-M_alt 'P 1'
_space_group_name_Hall 'P 1'
loop_
    _symmetry_equiv_pos_as_xyz
    x,y,z
loop_
    _atom_site_label
    _atom_site_type_symbol
    _atom_site_fract_x
    _atom_site_fract_y
    _atom_site_fract_z
    _atom_site_occupancy
    N0      N    0.15641   0.42787   0.13463   1.000
    N1      N    0.65642   0.42787   0.13463   1.000
    N2      N    0.94204   0.57159   0.36498   1.000
    N3      N    0.78377   0.01514   0.13451   1.000
    N4      N    0.28377   0.01514   0.13451   1.000
    N5      N    0.44203   0.57160   0.36498   1.000
    N6      N    0.71625   0.98487   0.86546   1.000
    N7      N    0.21625   0.98487   0.86547   1.000
    N8      N    0.84360   0.57213   0.86536   1.000
    N9      N    0.34359   0.57212   0.86535   1.000
    N10     N    0.77657   0.98460   0.36581   1.000
    N11     N    0.27655   0.98460   0.36580   1.000
    N12     N    0.22346   0.01541   0.63417   1.000
    N13     N    0.72347   0.01541   0.63418   1.000
    N14     N    0.05798   0.42841   0.63500   1.000
    N15     N    0.55799   0.42841   0.63500   1.000
    Zr16    Zr   0.96031   0.72051   0.62728   1.000
    O17     O    0.04787   0.78482   0.70475   1.000
    O18     O    0.93536   0.66390   0.70688   1.000
    Zr19    Zr   0.03971   0.27950   0.37270   1.000
    O20     O    0.06466   0.33610   0.29309   1.000
    O21     O    0.95215   0.21519   0.29522   1.000
    Zr22    Zr   0.53971   0.27950   0.37268   1.000
    O23     O    0.45215   0.21519   0.29521   1.000
    O24     O    0.56466   0.33611   0.29308   1.000
    Zr25    Zr   0.21609   0.65566   0.45354   1.000
    O26     O    0.13676   0.63290   0.42221   1.000
    O27     O    0.17305   0.58975   0.51002   1.000
    O28     O    0.28232   0.62888   0.42477   1.000
    O29     O    0.21992   0.76380   0.50546   1.000
    Zr30    Zr   0.39944   0.71998   0.12708   1.000
    O31     O    0.39609   0.66337   0.20660   1.000
    O32     O    0.34423   0.78432   0.20468   1.000
    Zr33    Zr   0.88942   0.34400   0.04620   1.000
    O34     O    0.87890   0.41017   0.98990   1.000
    O35     O    0.96873   0.37079   0.07497   1.000
    O36     O    0.82118   0.36669   0.07751   1.000
    O37     O    0.83901   0.23602   0.99422   1.000
    Zr38    Zr   0.38942   0.34399   0.04620   1.000
    O39     O    0.37889   0.41017   0.98990   1.000
    O40     O    0.33901   0.23602   0.99422   1.000
    O41     O    0.46873   0.37079   0.07497   1.000
    O42     O    0.32117   0.36668   0.07751   1.000
    Zr43    Zr   0.60057   0.28000   0.87287   1.000
    O44     O    0.60391   0.33662   0.79336   1.000
    O45     O    0.65578   0.21568   0.79528   1.000
    Zr46    Zr   0.11059   0.65601   0.95378   1.000
    O47     O    0.17883   0.63331   0.92248   1.000
    O48     O    0.03128   0.62922   0.92501   1.000
    O49     O    0.12111   0.58983   0.01009   1.000
    O50     O    0.16100   0.76399   0.00576   1.000
    Zr51    Zr   0.46031   0.72051   0.62728   1.000
    O52     O    0.43535   0.66390   0.70688   1.000
    O53     O    0.54787   0.78482   0.70474   1.000
    Zr54    Zr   0.89945   0.71999   0.12711   1.000
    O55     O    0.89610   0.66338   0.20662   1.000
    O56     O    0.84424   0.78432   0.20471   1.000
    Zr57    Zr   0.10056   0.28000   0.87287   1.000
    O58     O    0.10391   0.33661   0.79336   1.000
    O59     O    0.15577   0.21567   0.79528   1.000
    Zr60    Zr   0.61059   0.65602   0.95378   1.000
    O61     O    0.53128   0.62922   0.92501   1.000
    O62     O    0.67884   0.63332   0.92248   1.000
    O63     O    0.66101   0.76399   0.00576   1.000
    O64     O    0.62112   0.58984   0.01009   1.000
    Zr65    Zr   0.78393   0.34436   0.54646   1.000
    O66     O    0.86326   0.36711   0.57779   1.000
    O67     O    0.71770   0.37114   0.57522   1.000
    O68     O    0.82697   0.41027   0.48997   1.000
    O69     O    0.78010   0.23622   0.49454   1.000
    Zr70    Zr   0.28392   0.34436   0.54646   1.000
    O71     O    0.32697   0.41027   0.48997   1.000
    O72     O    0.21770   0.37114   0.57522   1.000
    O73     O    0.28009   0.23622   0.49454   1.000
    O74     O    0.36326   0.36711   0.57779   1.000
    Zr75    Zr   0.71610   0.65566   0.45354   1.000
    O76     O    0.67305   0.58975   0.51002   1.000
    O77     O    0.63676   0.63290   0.42221   1.000
    O78     O    0.78232   0.62888   0.42477   1.000
    O79     O    0.71993   0.76380   0.50546   1.000
    O80     O    0.18794   0.38268   0.86783   1.000
    O81     O    0.00344   0.38217   0.36757   1.000
    O82     O    0.50344   0.38217   0.36755   1.000
    O83     O    0.50167   0.62189   0.63167   1.000
    O84     O    0.69161   0.38227   0.86508   1.000
    O85     O    0.30839   0.61772   0.13489   1.000
    O86     O    0.80898   0.62137   0.13142   1.000
    O87     O    0.99658   0.61784   0.63241   1.000
loop_
    _geom_bond_atom_site_label_1
    _geom_bond_atom_site_label_2
    _geom_bond_distance
    _geom_bond_site_symmetry_2
    _ccdc_geom_bond_type
    Zr16   O17       1.99527  1_655   S
    N7     O17       4.20472      .   S
    Zr16   O18       1.71067      .   S
    N8     O18       3.46586      .   S
    Zr19   O20       1.71068      .   S
    N0     O20       3.46558      .   S
    Zr19   O21       1.99533  1_455   S
    N3     O21       4.20471      .   S
    Zr22   O23       1.99523      .   S
    N4     O23       4.20458      .   S
    Zr22   O24       1.71053      .   S
    N1     O24       3.46546      .   S
    Zr25   O26       1.48888      .   S
    N2     O26       3.54408  1_655   S
    Zr25   O27       1.52394      .   S
    N14    O27       3.62634      .   S
    Zr25   O28       1.46984      .   S
    N5     O28       3.44783      .   S
    Zr25   O29       1.65713      .   S
    N12    O29       3.93961  1_545   S
    Zr30   O31       1.70949      .   S
    N5     O31       3.46544      .   S
    Zr30   O32       1.99110      .   S
    N11    O32       4.19762      .   S
    Zr33   O34       1.52692  1_554   S
    N8     O34       3.63371      .   S
    Zr33   O35       1.46646      .   S
    N0     O35       3.43964  1_455   S
    Zr33   O36       1.49156      .   S
    N1     O36       3.55088      .   S
    Zr33   O37       1.65834  1_554   S
    N6     O37       3.94211  1_565   S
    Zr38   O39       1.52693  1_554   S
    N9     O39       3.63373      .   S
    Zr38   O40       1.65833  1_554   S
    N7     O40       3.94207  1_565   S
    Zr38   O41       1.46650      .   S
    N1     O41       3.43977      .   S
    Zr38   O42       1.49157      .   S
    N0     O42       3.55090      .   S
    Zr43   O44       1.70929      .   S
    N15    O44       3.46533      .   S
    Zr43   O45       1.99096      .   S
    N13    O45       4.19744      .   S
    Zr46   O47       1.49155      .   S
    N9     O47       3.55088      .   S
    Zr46   O48       1.46645      .   S
    N8     O48       3.43965  1_655   S
    Zr46   O49       1.52702  1_556   S
    N0     O49       3.63386      .   S
    Zr46   O50       1.65833  1_556   S
    N4     O50       3.94206  1_545   S
    Zr51   O52       1.71063      .   S
    N9     O52       3.46595      .   S
    Zr51   O53       1.99529      .   S
    N6     O53       4.20474      .   S
    Zr54   O55       1.70927      .   S
    N2     O55       3.46526      .   S
    Zr54   O56       1.99098      .   S
    N10    O56       4.19740      .   S
    Zr57   O58       1.70929      .   S
    N14    O58       3.46530      .   S
    Zr57   O59       1.99095      .   S
    N12    O59       4.19743      .   S
    Zr60   O61       1.46649      .   S
    N9     O61       3.43980      .   S
    Zr60   O62       1.49156      .   S
    N8     O62       3.55090      .   S
    Zr60   O63       1.65831  1_556   S
    N3     O63       3.94200  1_545   S
    Zr60   O64       1.52701  1_556   S
    N1     O64       3.63383      .   S
    Zr65   O66       1.48884      .   S
    N14    O66       3.54403  1_455   S
    Zr65   O67       1.46979      .   S
    N15    O67       3.44769      .   S
    Zr65   O68       1.52396      .   S
    N2     O68       3.62637      .   S
    Zr65   O69       1.65719      .   S
    N10    O69       3.93975  1_565   S
    Zr70   O71       1.52400      .   S
    N5     O71       3.62645      .   S
    Zr70   O72       1.46977      .   S
    N14    O72       3.44766      .   S
    Zr70   O73       1.65721      .   S
    N11    O73       3.93981  1_565   S
    Zr70   O74       1.48887      .   S
    N15    O74       3.54416      .   S
    Zr75   O76       1.52394      .   S
    N15    O76       3.62633      .   S
    Zr75   O77       1.48893      .   S
    N5     O77       3.54420      .   S
    Zr75   O78       1.46982      .   S
    N2     O78       3.44777      .   S
    Zr75   O79       1.65713      .   S
    N13    O79       3.93962  1_545   S
    N9     O80       3.28799      .   S
    Zr57   O80       1.82721      .   S
    N2     O81       3.28891  1_655   S
    Zr19   O81       1.82760      .   S
    N5     O82       3.28891      .   S
    Zr22   O82       1.82761      .   S
    N15    O83       3.28947      .   S
    Zr51   O83       1.83268      .   S
    Zr43   O84       1.87656      .   S
    N8     O84       3.24340      .   S
    Zr30   O85       1.87653      .   S
    N0     O85       3.24334      .   S
    N1     O86       3.28819      .   S
    Zr54   O86       1.83233      .   S
    N14    O87       3.28902  1_455   S
    Zr16   O87       1.82763      .   S
