# CIF file generated by openbabel 2.4.90, see http://openbabel.sf.net
data_I
_chemical_name_common ''
_cell_length_a 18.591
_cell_length_b 14.43
_cell_length_c 17.459
_cell_angle_alpha 99.039
_cell_angle_beta 89.947
_cell_angle_gamma 108.708
_space_group_name_H-M_alt 'P 1'
_space_group_name_Hall 'P 1'
loop_
    _symmetry_equiv_pos_as_xyz
    x,y,z
loop_
    _atom_site_label
    _atom_site_type_symbol
    _atom_site_fract_x
    _atom_site_fract_y
    _atom_site_fract_z
    _atom_site_occupancy
    Zr0     Zr   0.48760   0.34786   0.33930   1.000
    Zr1     Zr   0.98760   0.34785   0.33930   1.000
    Zr2     Zr   0.28392   0.34436   0.54646   1.000
    Zr3     Zr   0.78393   0.34436   0.54646   1.000
    Zr4     Zr   0.31301   0.65152   0.16034   1.000
    Zr5     Zr   0.81302   0.65153   0.16034   1.000
    Zr6     Zr   0.11059   0.65601   0.95378   1.000
    Zr7     Zr   0.61059   0.65602   0.95378   1.000
    Zr8     Zr   0.01241   0.65216   0.66062   1.000
    Zr9     Zr   0.51242   0.65216   0.66060   1.000
    Zr10    Zr   0.21609   0.65566   0.45354   1.000
    Zr11    Zr   0.71610   0.65566   0.45354   1.000
    Zr12    Zr   0.18699   0.34847   0.83966   1.000
    Zr13    Zr   0.68700   0.34848   0.83966   1.000
    Zr14    Zr   0.38942   0.34399   0.04620   1.000
    Zr15    Zr   0.88942   0.34400   0.04620   1.000
    Zr16    Zr   0.07398   0.25056   0.33942   1.000
    Zr17    Zr   0.57398   0.25056   0.33942   1.000
    Zr18    Zr   0.06244   0.26931   0.43219   1.000
    Zr19    Zr   0.56245   0.26931   0.43210   1.000
    Zr20    Zr   0.44816   0.74852   0.16030   1.000
    Zr21    Zr   0.94817   0.74854   0.16037   1.000
    Zr22    Zr   0.42740   0.73066   0.06760   1.000
    Zr23    Zr   0.92742   0.73066   0.06766   1.000
    Zr24    Zr   0.42603   0.74945   0.66058   1.000
    Zr25    Zr   0.92604   0.74945   0.66058   1.000
    Zr26    Zr   0.43757   0.73070   0.56781   1.000
    Zr27    Zr   0.93758   0.73070   0.56781   1.000
    Zr28    Zr   0.05184   0.25142   0.83960   1.000
    Zr29    Zr   0.55185   0.25143   0.83960   1.000
    Zr30    Zr   0.07257   0.26933   0.93231   1.000
    Zr31    Zr   0.57258   0.26934   0.93231   1.000
    Zr32    Zr   0.03481   0.25029   0.37989   1.000
    Zr33    Zr   0.53481   0.25029   0.37989   1.000
    Zr34    Zr   0.40917   0.74921   0.12007   1.000
    Zr35    Zr   0.90918   0.74922   0.12008   1.000
    Zr36    Zr   0.46520   0.74972   0.62011   1.000
    Zr37    Zr   0.96521   0.74972   0.62011   1.000
    Zr38    Zr   0.09083   0.25076   0.87991   1.000
    Zr39    Zr   0.59084   0.25077   0.87991   1.000
    O40     O    0.41828   0.73993   0.09384   1.000
    O41     O    0.91830   0.73994   0.09387   1.000
    O42     O    0.42866   0.74886   0.14019   1.000
    O43     O    0.92867   0.74888   0.14023   1.000
    O44     O    0.55440   0.25043   0.35966   1.000
    O45     O    0.05439   0.25042   0.35966   1.000
    O46     O    0.04862   0.25980   0.40604   1.000
    O47     O    0.54863   0.25980   0.40600   1.000
    O48     O    0.95140   0.74021   0.59396   1.000
    O49     O    0.45139   0.74021   0.59396   1.000
    O50     O    0.44561   0.74959   0.64035   1.000
    O51     O    0.94562   0.74959   0.64035   1.000
    O52     O    0.07134   0.25109   0.85976   1.000
    O53     O    0.57134   0.25110   0.85976   1.000
    O54     O    0.58171   0.26005   0.90611   1.000
    O55     O    0.08170   0.26005   0.90611   1.000
    O56     O    0.01120   0.29907   0.35960   1.000
    O57     O    0.51120   0.29907   0.35960   1.000
    O58     O    0.36109   0.70036   0.14021   1.000
    O59     O    0.86110   0.70037   0.14021   1.000
    O60     O    0.48881   0.70094   0.64036   1.000
    O61     O    0.98881   0.70094   0.64037   1.000
    O62     O    0.13891   0.29962   0.85979   1.000
    O63     O    0.63892   0.29963   0.85979   1.000
    N64     N    0.15641   0.42787   0.13463   1.000
    O65     O    0.20886   0.50901   0.15516   1.000
    O66     O    0.21347   0.53815   0.12729   1.000
    O67     O    0.13164   0.52365   0.06639   1.000
    O68     O    0.04805   0.39758   0.10374   1.000
    O69     O    0.08961   0.39270   0.21348   1.000
    O70     O    0.25293   0.38938   0.10882   1.000
    O71     O    0.23821   0.50566   0.13318   1.000
    N72     N    0.65642   0.42787   0.13463   1.000
    O73     O    0.70887   0.50902   0.15516   1.000
    O74     O    0.71348   0.53816   0.12729   1.000
    O75     O    0.63164   0.52366   0.06639   1.000
    O76     O    0.54805   0.39758   0.10374   1.000
    O77     O    0.58961   0.39271   0.21348   1.000
    O78     O    0.75293   0.38938   0.10882   1.000
    O79     O    0.73822   0.50567   0.13318   1.000
    N80     N    0.94204   0.57159   0.36498   1.000
    O81     O    0.05743   0.61014   0.39087   1.000
    O82     O    0.98509   0.49379   0.36650   1.000
    O83     O    0.94437   0.46138   0.37239   1.000
    O84     O    0.87002   0.47617   0.43349   1.000
    O85     O    0.84854   0.60210   0.39600   1.000
    O86     O    0.89276   0.60677   0.28613   1.000
    O87     O    0.95414   0.49039   0.34435   1.000
    N88     N    0.78377   0.01514   0.13451   1.000
    O89     O    0.86459   0.15087   0.21775   1.000
    O90     O    0.71142   0.87196   0.05774   1.000
    N91     N    0.28377   0.01514   0.13451   1.000
    O92     O    0.36458   0.15087   0.21775   1.000
    O93     O    0.21142   0.87196   0.05774   1.000
    N94     N    0.44203   0.57160   0.36498   1.000
    O95     O    0.55743   0.61015   0.39087   1.000
    O96     O    0.48509   0.49380   0.36649   1.000
    O97     O    0.44436   0.46138   0.37239   1.000
    O98     O    0.37002   0.47617   0.43348   1.000
    O99     O    0.34854   0.60210   0.39600   1.000
    O100    O    0.39275   0.60677   0.28613   1.000
    O101    O    0.45413   0.49039   0.34434   1.000
    N102    N    0.71625   0.98487   0.86546   1.000
    O103    O    0.63543   0.84914   0.78221   1.000
    O104    O    0.78860   0.12805   0.94224   1.000
    N105    N    0.21625   0.98487   0.86547   1.000
    O106    O    0.13543   0.84913   0.78222   1.000
    O107    O    0.28860   0.12805   0.94224   1.000
    N108    N    0.84360   0.57213   0.86536   1.000
    O109    O    0.74708   0.61062   0.89117   1.000
    O110    O    0.76180   0.49433   0.86682   1.000
    O111    O    0.86838   0.47635   0.93360   1.000
    O112    O    0.95197   0.60242   0.89625   1.000
    O113    O    0.91040   0.60730   0.78649   1.000
    O114    O    0.79115   0.49098   0.84483   1.000
    O115    O    0.78654   0.46184   0.87271   1.000
    N116    N    0.34359   0.57212   0.86535   1.000
    O117    O    0.24708   0.61061   0.89117   1.000
    O118    O    0.26179   0.49432   0.86682   1.000
    O119    O    0.45197   0.60242   0.89625   1.000
    O120    O    0.41040   0.60729   0.78648   1.000
    O121    O    0.29114   0.49098   0.84482   1.000
    O122    O    0.28653   0.46184   0.87271   1.000
    O123    O    0.36837   0.47634   0.93360   1.000
    N124    N    0.77657   0.98460   0.36581   1.000
    O125    O    0.78903   0.84866   0.28230   1.000
    O126    O    0.77627   0.12808   0.44262   1.000
    N127    N    0.27655   0.98460   0.36580   1.000
    O128    O    0.28902   0.84866   0.28228   1.000
    O129    O    0.27626   0.12808   0.44261   1.000
    N130    N    0.22346   0.01541   0.63417   1.000
    O131    O    0.22375   0.87194   0.55737   1.000
    O132    O    0.21099   0.15135   0.71769   1.000
    N133    N    0.72347   0.01541   0.63418   1.000
    O134    O    0.72376   0.87194   0.55737   1.000
    O135    O    0.71100   0.15136   0.71769   1.000
    N136    N    0.05798   0.42841   0.63500   1.000
    O137    O    0.04588   0.50961   0.65562   1.000
    O138    O    0.05565   0.53863   0.62759   1.000
    O139    O    0.13000   0.52384   0.56651   1.000
    O140    O    0.15148   0.39791   0.60399   1.000
    O141    O    0.10726   0.39323   0.71386   1.000
    O142    O    0.94259   0.38986   0.60912   1.000
    O143    O    0.01492   0.50621   0.63348   1.000
    N144    N    0.55799   0.42841   0.63500   1.000
    O145    O    0.54588   0.50961   0.65562   1.000
    O146    O    0.55566   0.53863   0.62758   1.000
    O147    O    0.63001   0.52384   0.56651   1.000
    O148    O    0.65148   0.39791   0.60399   1.000
    O149    O    0.60726   0.39323   0.71386   1.000
    O150    O    0.44259   0.38986   0.60912   1.000
    O151    O    0.51492   0.50621   0.63347   1.000
loop_
    _geom_bond_atom_site_label_1
    _geom_bond_atom_site_label_2
    _geom_bond_distance
    _geom_bond_site_symmetry_2
    _ccdc_geom_bond_type
    Zr22   O40       0.50159      .   S
    Zr34   O40       0.50159      .   S
    Zr23   O41       0.50124      .   S
    Zr35   O41       0.50124      .   S
    Zr34   O42       0.50665      .   S
    Zr20   O42       0.50665      .   S
    Zr35   O43       0.50699      .   S
    Zr21   O43       0.50699      .   S
    Zr17   O44       0.50687      .   S
    Zr33   O44       0.50687      .   S
    Zr16   O45       0.50687      .   S
    Zr32   O45       0.50687      .   S
    Zr32   O46       0.50118      .   S
    Zr18   O46       0.50118      .   S
    Zr33   O47       0.50050      .   S
    Zr19   O47       0.50050      .   S
    Zr27   O48       0.50116      .   S
    Zr37   O48       0.50116      .   S
    Zr26   O49       0.50115      .   S
    Zr36   O49       0.50115      .   S
    Zr36   O50       0.50689      .   S
    Zr24   O50       0.50689      .   S
    Zr37   O51       0.50690      .   S
    Zr25   O51       0.50690      .   S
    Zr28   O52       0.50700      .   S
    Zr38   O52       0.50700      .   S
    Zr29   O53       0.50699      .   S
    Zr39   O53       0.50699      .   S
    Zr39   O54       0.50116      .   S
    Zr31   O54       0.50116      .   S
    Zr38   O55       0.50116      .   S
    Zr30   O55       0.50116      .   S
    Zr32   O56       1.04419      .   S
    Zr1    O56       1.04419  1_655   S
    Zr33   O57       1.04427      .   S
    Zr0    O57       1.04427      .   S
    Zr34   O58       1.04518      .   S
    Zr4    O58       1.04518      .   S
    Zr35   O59       1.04516      .   S
    Zr5    O59       1.04516      .   S
    Zr36   O60       1.04392      .   S
    Zr9    O60       1.04392      .   S
    Zr37   O61       1.04391      .   S
    Zr8    O61       1.04391  1_455   S
    Zr38   O62       1.04521      .   S
    Zr12   O62       1.04521      .   S
    Zr39   O63       1.04522      .   S
    Zr13   O63       1.04522      .   S
    N64    O65       1.25963      .   S
    Zr4    O65       2.31811      .   S
    N64    O66       1.62953      .   S
    Zr4    O66       2.04866      .   S
    N64    O67       2.11403      .   S
    Zr6    O67       3.05404  1_556   S
    N64    O68       1.97583      .   S
    Zr15   O68       2.93292  1_655   S
    N64    O69       1.87276      .   S
    Zr1    O69       2.91407  1_655   S
    N64    O70       2.07129      .   S
    Zr14   O70       2.98313      .   S
    N64    O71       1.57713      .   S
    Zr4    O71       2.09727      .   S
    N72    O73       1.25963      .   S
    Zr5    O73       2.31811      .   S
    N72    O74       1.62953      .   S
    Zr5    O74       2.04866      .   S
    N72    O75       2.11402      .   S
    Zr7    O75       3.05402  1_556   S
    N72    O76       1.97592      .   S
    Zr14   O76       2.93300      .   S
    N72    O77       1.87279      .   S
    Zr0    O77       2.91419      .   S
    N72    O78       2.07128      .   S
    Zr15   O78       2.98312      .   S
    N72    O79       1.57712      .   S
    Zr5    O79       2.09726      .   S
    N80    O81       2.06712  1_655   S
    Zr10   O81       2.97776      .   S
    N80    O82       1.57723      .   S
    Zr1    O82       2.10036      .   S
    N80    O83       1.62995      .   S
    Zr1    O83       2.05186      .   S
    N80    O84       2.10973      .   S
    Zr3    O84       3.04792      .   S
    N80    O85       1.98048      .   S
    Zr11   O85       2.93963      .   S
    N80    O86       1.87412      .   S
    Zr5    O86       2.91612      .   S
    N80    O87       1.26084      .   S
    Zr1    O87       2.32151      .   S
    N88    O89       2.32970      .   S
    Zr1    O89       3.42887      .   S
    N88    O90       2.28577  1_545   S
    Zr7    O90       3.31661  1_556   S
    N91    O92       2.32967      .   S
    Zr0    O92       3.42884      .   S
    N91    O93       2.28581  1_545   S
    Zr6    O93       3.31665  1_556   S
    N94    O95       2.06719      .   S
    Zr11   O95       2.97785      .   S
    N94    O96       1.57724      .   S
    Zr0    O96       2.10031      .   S
    N94    O97       1.62994      .   S
    Zr0    O97       2.05182      .   S
    N94    O98       2.10977      .   S
    Zr2    O98       3.04799      .   S
    N94    O99       1.98052      .   S
    Zr10   O99       2.93968      .   S
    N94    O100      1.87410      .   S
    Zr4    O100      2.91607      .   S
    N94    O101      1.26082      .   S
    Zr0    O101      2.32148      .   S
    N102   O103      2.32978      .   S
    Zr9    O103      3.42934      .   S
    N102   O104      2.28585  1_565   S
    Zr15   O104      3.31667  1_554   S
    N105   O106      2.32977      .   S
    Zr8    O106      3.42926      .   S
    N105   O107      2.28582  1_565   S
    Zr14   O107      3.31665  1_554   S
    N108   O109      2.07129      .   S
    Zr7    O109      2.98311      .   S
    N108   O110      1.57713      .   S
    Zr13   O110      2.09721      .   S
    N108   O111      2.11398      .   S
    Zr15   O111      3.05384  1_554   S
    N108   O112      1.97585      .   S
    Zr6    O112      2.93290  1_455   S
    N108   O113      1.87302      .   S
    Zr8    O113      2.91484  1_455   S
    N108   O114      1.25962      .   S
    Zr13   O114      2.31811      .   S
    N108   O115      1.62952      .   S
    Zr13   O115      2.04864      .   S
    N116   O117      2.07127      .   S
    Zr6    O117      2.98309      .   S
    N116   O118      1.57713      .   S
    Zr12   O118      2.09722      .   S
    N116   O119      1.97596      .   S
    Zr7    O119      2.93298      .   S
    N116   O120      1.87315      .   S
    Zr9    O120      2.91507      .   S
    N116   O121      1.25963      .   S
    Zr12   O121      2.31811      .   S
    N116   O122      1.62953      .   S
    Zr12   O122      2.04864      .   S
    N116   O123      2.11399      .   S
    Zr14   O123      3.05385  1_554   S
    N124   O125      2.32807      .   S
    Zr5    O125      3.42542      .   S
    N124   O126      2.28463  1_565   S
    Zr3    O126      3.31439      .   S
    N127   O128      2.32816      .   S
    Zr4    O128      3.42533      .   S
    N127   O129      2.28468  1_565   S
    Zr2    O129      3.31443      .   S
    N130   O131      2.28455  1_545   S
    Zr10   O131      3.31427      .   S
    N130   O132      2.32813      .   S
    Zr12   O132      3.42549      .   S
    N133   O134      2.28456  1_545   S
    Zr11   O134      3.31427      .   S
    N133   O135      2.32814      .   S
    Zr13   O135      3.42552      .   S
    N136   O137      1.26080      .   S
    Zr8    O137      2.32169      .   S
    N136   O138      1.63006      .   S
    Zr8    O138      2.05174      .   S
    N136   O139      2.10972      .   S
    Zr10   O139      3.04788      .   S
    N136   O140      1.98042      .   S
    Zr2    O140      2.93954      .   S
    N136   O141      1.87414      .   S
    Zr12   O141      2.91623      .   S
    N136   O142      2.06711  1_455   S
    Zr3    O142      2.97769      .   S
    N136   O143      1.57732      .   S
    Zr8    O143      2.10032      .   S
    N144   O145      1.26078      .   S
    Zr9    O145      2.32169      .   S
    N144   O146      1.63007      .   S
    Zr9    O146      2.05168      .   S
    N144   O147      2.10972      .   S
    Zr11   O147      3.04787      .   S
    N144   O148      1.98044      .   S
    Zr3    O148      2.93957      .   S
    N144   O149      1.87417      .   S
    Zr13   O149      2.91624      .   S
    N144   O150      2.06721      .   S
    Zr2    O150      2.97774      .   S
    N144   O151      1.57735      .   S
    Zr9    O151      2.10028      .   S
