# CIF file generated by openbabel 2.4.90, see http://openbabel.sf.net
data_I
_chemical_name_common ''
_cell_length_a 18.591
_cell_length_b 14.43
_cell_length_c 17.459
_cell_angle_alpha 99.039
_cell_angle_beta 89.947
_cell_angle_gamma 108.708
_space_group_name_H-M_alt 'P 1'
_space_group_name_Hall 'P 1'
loop_
    _symmetry_equiv_pos_as_xyz
    x,y,z
loop_
    _atom_site_label
    _atom_site_type_symbol
    _atom_site_fract_x
    _atom_site_fract_y
    _atom_site_fract_z
    _atom_site_occupancy
    N0      N    0.15641   0.42787   0.13463   1.000
    N1      N    0.65642   0.42787   0.13463   1.000
    N2      N    0.94204   0.57159   0.36498   1.000
    N3      N    0.78377   0.01514   0.13451   1.000
    N4      N    0.28377   0.01514   0.13451   1.000
    N5      N    0.44203   0.57160   0.36498   1.000
    N6      N    0.71625   0.98487   0.86546   1.000
    N7      N    0.21625   0.98487   0.86547   1.000
    N8      N    0.84360   0.57213   0.86536   1.000
    N9      N    0.34359   0.57212   0.86535   1.000
    N10     N    0.77657   0.98460   0.36581   1.000
    N11     N    0.27655   0.98460   0.36580   1.000
    N12     N    0.22346   0.01541   0.63417   1.000
    N13     N    0.72347   0.01541   0.63418   1.000
    N14     N    0.05798   0.42841   0.63500   1.000
    N15     N    0.55799   0.42841   0.63500   1.000
    Zr16    Zr   0.96031   0.72051   0.62728   1.000
    O17     O    0.04787   0.78482   0.70475   1.000
    O18     O    0.98762   0.61336   0.63038   1.000
    O19     O    0.00798   0.62957   0.62743   1.000
    O20     O    0.93536   0.66390   0.70688   1.000
    O21     O    0.00309   0.61506   0.64145   1.000
    Zr22    Zr   0.03971   0.27950   0.37270   1.000
    O23     O    0.01240   0.38665   0.36960   1.000
    O24     O    0.99692   0.38495   0.35852   1.000
    O25     O    0.06466   0.33610   0.29309   1.000
    O26     O    0.95215   0.21519   0.29522   1.000
    O27     O    0.99204   0.37044   0.37254   1.000
    Zr28    Zr   0.53971   0.27950   0.37268   1.000
    O29     O    0.49692   0.38495   0.35851   1.000
    O30     O    0.49204   0.37044   0.37253   1.000
    O31     O    0.45215   0.21519   0.29521   1.000
    O32     O    0.51240   0.38665   0.36959   1.000
    O33     O    0.56466   0.33611   0.29308   1.000
    Zr34    Zr   0.21609   0.65566   0.45354   1.000
    O35     O    0.13676   0.63290   0.42221   1.000
    O36     O    0.17305   0.58975   0.51002   1.000
    O37     O    0.28232   0.62888   0.42477   1.000
    O38     O    0.21992   0.76380   0.50546   1.000
    Zr39    Zr   0.39944   0.71998   0.12708   1.000
    O40     O    0.30415   0.61449   0.14112   1.000
    O41     O    0.30645   0.62906   0.12718   1.000
    O42     O    0.39609   0.66337   0.20660   1.000
    O43     O    0.34423   0.78432   0.20468   1.000
    O44     O    0.31882   0.61282   0.13013   1.000
    Zr45    Zr   0.88942   0.34400   0.04620   1.000
    O46     O    0.87890   0.41017   0.98990   1.000
    O47     O    0.96873   0.37079   0.07497   1.000
    O48     O    0.82118   0.36669   0.07751   1.000
    O49     O    0.83901   0.23602   0.99422   1.000
    Zr50    Zr   0.38942   0.34399   0.04620   1.000
    O51     O    0.37889   0.41017   0.98990   1.000
    O52     O    0.33901   0.23602   0.99422   1.000
    O53     O    0.46873   0.37079   0.07497   1.000
    O54     O    0.32117   0.36668   0.07751   1.000
    Zr55    Zr   0.60057   0.28000   0.87287   1.000
    O56     O    0.60391   0.33662   0.79336   1.000
    O57     O    0.68118   0.38717   0.86984   1.000
    O58     O    0.69355   0.37092   0.87279   1.000
    O59     O    0.69586   0.38549   0.85885   1.000
    O60     O    0.65578   0.21568   0.79528   1.000
    Zr61    Zr   0.11059   0.65601   0.95378   1.000
    O62     O    0.17883   0.63331   0.92248   1.000
    O63     O    0.03128   0.62922   0.92501   1.000
    O64     O    0.12111   0.58983   0.01009   1.000
    O65     O    0.16100   0.76399   0.00576   1.000
    Zr66    Zr   0.46031   0.72051   0.62728   1.000
    O67     O    0.43535   0.66390   0.70688   1.000
    O68     O    0.50310   0.61506   0.64145   1.000
    O69     O    0.54787   0.78482   0.70474   1.000
    O70     O    0.50798   0.62957   0.62743   1.000
    O71     O    0.48761   0.61336   0.63037   1.000
    Zr72    Zr   0.89945   0.71999   0.12711   1.000
    O73     O    0.89610   0.66338   0.20662   1.000
    O74     O    0.81883   0.61283   0.13014   1.000
    O75     O    0.80646   0.62907   0.12720   1.000
    O76     O    0.84424   0.78432   0.20471   1.000
    O77     O    0.80416   0.61450   0.14114   1.000
    Zr78    Zr   0.10056   0.28000   0.87287   1.000
    O79     O    0.19585   0.38549   0.85885   1.000
    O80     O    0.19355   0.37092   0.87279   1.000
    O81     O    0.18117   0.38716   0.86984   1.000
    O82     O    0.10391   0.33661   0.79336   1.000
    O83     O    0.15577   0.21567   0.79528   1.000
    Zr84    Zr   0.61059   0.65602   0.95378   1.000
    O85     O    0.53128   0.62922   0.92501   1.000
    O86     O    0.67884   0.63332   0.92248   1.000
    O87     O    0.66101   0.76399   0.00576   1.000
    O88     O    0.62112   0.58984   0.01009   1.000
    Zr89    Zr   0.78393   0.34436   0.54646   1.000
    O90     O    0.86326   0.36711   0.57779   1.000
    O91     O    0.71770   0.37114   0.57522   1.000
    O92     O    0.82697   0.41027   0.48997   1.000
    O93     O    0.78010   0.23622   0.49454   1.000
    Zr94    Zr   0.28392   0.34436   0.54646   1.000
    O95     O    0.32697   0.41027   0.48997   1.000
    O96     O    0.21770   0.37114   0.57522   1.000
    O97     O    0.28009   0.23622   0.49454   1.000
    O98     O    0.36326   0.36711   0.57779   1.000
    Zr99    Zr   0.71610   0.65566   0.45354   1.000
    O100    O    0.67305   0.58975   0.51002   1.000
    O101    O    0.63676   0.63290   0.42221   1.000
    O102    O    0.78232   0.62888   0.42477   1.000
    O103    O    0.71993   0.76380   0.50546   1.000
loop_
    _geom_bond_atom_site_label_1
    _geom_bond_atom_site_label_2
    _geom_bond_distance
    _geom_bond_site_symmetry_2
    _ccdc_geom_bond_type
    Zr16   O17       1.99527  1_655   S
    N7     O17       4.20472      .   S
    Zr16   O18       1.78356      .   S
    N14    O18       3.33887  1_455   S
    Zr16   O19       1.80407  1_655   S
    N14    O19       3.34052      .   S
    Zr16   O20       1.71067      .   S
    N8     O20       3.46586      .   S
    Zr16   O21       1.97594  1_655   S
    N14    O21       3.15842      .   S
    Zr22   O23       1.78353      .   S
    N2     O23       3.33876  1_655   S
    Zr22   O24       1.97590  1_455   S
    N2     O24       3.15834      .   S
    Zr22   O25       1.71068      .   S
    N0     O25       3.46558      .   S
    Zr22   O26       1.99533  1_455   S
    N3     O26       4.20471      .   S
    Zr22   O27       1.80404  1_455   S
    N2     O27       3.34040      .   S
    Zr28   O29       1.97590      .   S
    N5     O29       3.15834      .   S
    Zr28   O30       1.80407      .   S
    N5     O30       3.34038      .   S
    Zr28   O31       1.99523      .   S
    N4     O31       4.20458      .   S
    Zr28   O32       1.78353      .   S
    N5     O32       3.33877      .   S
    Zr28   O33       1.71053      .   S
    N1     O33       3.46546      .   S
    Zr34   O35       1.48888      .   S
    N2     O35       3.54408  1_655   S
    Zr34   O36       1.52394      .   S
    N14    O36       3.62634      .   S
    Zr34   O37       1.46984      .   S
    N5     O37       3.44783      .   S
    Zr34   O38       1.65713      .   S
    N12    O38       3.93961  1_545   S
    Zr39   O40       1.97531      .   S
    N0     O40       3.15733      .   S
    Zr39   O41       1.80421      .   S
    N0     O41       3.33912      .   S
    Zr39   O42       1.70949      .   S
    N5     O42       3.46544      .   S
    Zr39   O43       1.99110      .   S
    N11    O43       4.19762      .   S
    Zr39   O44       1.78295      .   S
    N0     O44       3.33796      .   S
    Zr45   O46       1.52692  1_554   S
    N8     O46       3.63371      .   S
    Zr45   O47       1.46646      .   S
    N0     O47       3.43964  1_455   S
    Zr45   O48       1.49156      .   S
    N1     O48       3.55088      .   S
    Zr45   O49       1.65834  1_554   S
    N6     O49       3.94211  1_565   S
    Zr50   O51       1.52693  1_554   S
    N9     O51       3.63373      .   S
    Zr50   O52       1.65833  1_554   S
    N7     O52       3.94207  1_565   S
    Zr50   O53       1.46650      .   S
    N1     O53       3.43977      .   S
    Zr50   O54       1.49157      .   S
    N0     O54       3.55090      .   S
    Zr55   O56       1.70929      .   S
    N15    O56       3.46533      .   S
    Zr55   O57       1.78300      .   S
    N8     O57       3.33802      .   S
    Zr55   O58       1.80427      .   S
    N8     O58       3.33917      .   S
    Zr55   O59       1.97532      .   S
    N8     O59       3.15741      .   S
    Zr55   O60       1.99096      .   S
    N13    O60       4.19744      .   S
    Zr61   O62       1.49155      .   S
    N9     O62       3.55088      .   S
    Zr61   O63       1.46645      .   S
    N8     O63       3.43965  1_655   S
    Zr61   O64       1.52702  1_556   S
    N0     O64       3.63386      .   S
    Zr61   O65       1.65833  1_556   S
    N4     O65       3.94206  1_545   S
    Zr66   O67       1.71063      .   S
    N9     O67       3.46595      .   S
    Zr66   O68       1.97598      .   S
    N15    O68       3.15846      .   S
    Zr66   O69       1.99529      .   S
    N6     O69       4.20474      .   S
    Zr66   O70       1.80412      .   S
    N15    O70       3.34056      .   S
    Zr66   O71       1.78358      .   S
    N15    O71       3.33893      .   S
    Zr72   O73       1.70927      .   S
    N2     O73       3.46526      .   S
    Zr72   O74       1.78292      .   S
    N1     O74       3.33794      .   S
    Zr72   O75       1.80419      .   S
    N1     O75       3.33909      .   S
    Zr72   O76       1.99098      .   S
    N10    O76       4.19740      .   S
    Zr72   O77       1.97525      .   S
    N1     O77       3.15732      .   S
    Zr78   O79       1.97532      .   S
    N9     O79       3.15741      .   S
    Zr78   O80       1.80427      .   S
    N9     O80       3.33917      .   S
    Zr78   O81       1.78299      .   S
    N9     O81       3.33802      .   S
    Zr78   O82       1.70929      .   S
    N14    O82       3.46530      .   S
    Zr78   O83       1.99095      .   S
    N12    O83       4.19743      .   S
    Zr84   O85       1.46649      .   S
    N9     O85       3.43980      .   S
    Zr84   O86       1.49156      .   S
    N8     O86       3.55090      .   S
    Zr84   O87       1.65831  1_556   S
    N3     O87       3.94200  1_545   S
    Zr84   O88       1.52701  1_556   S
    N1     O88       3.63383      .   S
    Zr89   O90       1.48884      .   S
    N14    O90       3.54403  1_455   S
    Zr89   O91       1.46979      .   S
    N15    O91       3.44769      .   S
    Zr89   O92       1.52396      .   S
    N2     O92       3.62637      .   S
    Zr89   O93       1.65719      .   S
    N10    O93       3.93975  1_565   S
    Zr94   O95       1.52400      .   S
    N5     O95       3.62645      .   S
    Zr94   O96       1.46977      .   S
    N14    O96       3.44766      .   S
    Zr94   O97       1.65721      .   S
    N11    O97       3.93981  1_565   S
    Zr94   O98       1.48887      .   S
    N15    O98       3.54416      .   S
    Zr99   O100      1.52394      .   S
    N15    O100      3.62633      .   S
    Zr99   O101      1.48893      .   S
    N5     O101      3.54420      .   S
    Zr99   O102      1.46982      .   S
    N2     O102      3.44777      .   S
    Zr99   O103      1.65713      .   S
    N13    O103      3.93962  1_545   S
