# CIF file generated by openbabel 2.4.90, see http://openbabel.sf.net
data_I
_chemical_name_common ''
_cell_length_a 19.226
_cell_length_b 22.029
_cell_length_c 18.973
_cell_angle_alpha 101.661
_cell_angle_beta 87.803
_cell_angle_gamma 90.678
_space_group_name_H-M_alt 'P 1'
_space_group_name_Hall 'P 1'
loop_
    _symmetry_equiv_pos_as_xyz
    x,y,z
loop_
    _atom_site_label
    _atom_site_type_symbol
    _atom_site_fract_x
    _atom_site_fract_y
    _atom_site_fract_z
    _atom_site_occupancy
    H0      H    0.10957   0.19588   0.76238   1.000
    H1      H    0.12138   0.69322   0.77220   1.000
    H2      H    0.62275   0.19226   0.77072   1.000
    H3      H    0.60903   0.69879   0.75990   1.000
    H4      H    0.11282   0.13470   0.63601   1.000
    H5      H    0.11175   0.61984   0.65368   1.000
    H6      H    0.61225   0.11919   0.65217   1.000
    H7      H    0.61214   0.63767   0.63353   1.000
    H8      H    0.38980   0.13875   0.67044   1.000
    H9      H    0.38826   0.63208   0.63839   1.000
    H10     H    0.88896   0.13337   0.63844   1.000
    H11     H    0.88896   0.63566   0.67251   1.000
    H12     H    0.40034   0.21015   0.79068   1.000
    H13     H    0.38559   0.69297   0.76458   1.000
    H14     H    0.88613   0.19424   0.76469   1.000
    H15     H    0.89864   0.70716   0.79278   1.000
    H16     H    0.11705   0.04766   0.99539   1.000
    H17     H    0.10523   0.56619   0.99121   1.000
    H18     H    0.60449   0.06715   0.98994   1.000
    H19     H    0.61817   0.54956   0.99374   1.000
    H20     H    0.38245   0.04970   0.00000   1.000
    H21     H    0.39553   0.56497   0.99571   1.000
    H22     H    0.89452   0.06377   0.99661   1.000
    H23     H    0.88335   0.54804   0.00000   1.000
    H24     H    0.35193   0.04481   0.70936   1.000
    H25     H    0.36421   0.55517   0.73833   1.000
    H26     H    0.86400   0.05610   0.73739   1.000
    H27     H    0.85029   0.54197   0.71168   1.000
    H28     H    0.36196   0.11718   0.82890   1.000
    H29     H    0.36152   0.61606   0.86456   1.000
    H30     H    0.86163   0.11640   0.86380   1.000
    H31     H    0.86015   0.61339   0.83196   1.000
    H32     H    0.13909   0.13128   0.84960   1.000
    H33     H    0.13764   0.61532   0.86698   1.000
    H34     H    0.63772   0.11521   0.86721   1.000
    H35     H    0.63780   0.63426   0.84784   1.000
    H36     H    0.12917   0.05733   0.73160   1.000
    H37     H    0.14077   0.55429   0.74055   1.000
    H38     H    0.64053   0.05455   0.74064   1.000
    H39     H    0.62793   0.56088   0.72943   1.000
    H40     H    0.36676   0.20091   0.48481   1.000
    H41     H    0.35578   0.68600   0.50821   1.000
    H42     H    0.85621   0.18758   0.50629   1.000
    H43     H    0.86708   0.70262   0.48620   1.000
    H44     H    0.14507   0.18337   0.51221   1.000
    H45     H    0.13335   0.70102   0.50566   1.000
    H46     H    0.63357   0.20182   0.50625   1.000
    H47     H    0.64520   0.68414   0.51046   1.000
    H48     H    0.39127   0.30382   0.23989   1.000
    H49     H    0.37857   0.80689   0.23068   1.000
    H50     H    0.87805   0.30792   0.23053   1.000
    H51     H    0.89114   0.80234   0.24082   1.000
    H52     H    0.38800   0.36399   0.36668   1.000
    H53     H    0.38863   0.87990   0.34936   1.000
    H54     H    0.88782   0.38099   0.34922   1.000
    H55     H    0.88780   0.86285   0.36750   1.000
    H56     H    0.11042   0.36283   0.33165   1.000
    H57     H    0.11169   0.86617   0.36425   1.000
    H58     H    0.61189   0.36728   0.36331   1.000
    H59     H    0.61148   0.86570   0.32828   1.000
    H60     H    0.10062   0.29154   0.21123   1.000
    H61     H    0.11460   0.80597   0.23770   1.000
    H62     H    0.61472   0.30741   0.23663   1.000
    H63     H    0.60131   0.79447   0.20794   1.000
    H64     H    0.38398   0.45336   0.00000   1.000
    H65     H    0.39487   0.93552   0.00000   1.000
    H66     H    0.89630   0.43391   0.00000   1.000
    H67     H    0.88237   0.95239   0.00000   1.000
    H68     H    0.11822   0.45212   0.98723   1.000
    H69     H    0.10491   0.93628   0.00668   1.000
    H70     H    0.60662   0.43793   0.00427   1.000
    H71     H    0.61690   0.95298   0.98576   1.000
    H72     H    0.14874   0.45595   0.29254   1.000
    H73     H    0.13587   0.94305   0.26433   1.000
    H74     H    0.63620   0.44473   0.26374   1.000
    H75     H    0.64995   0.95975   0.29060   1.000
    H76     H    0.13905   0.38434   0.17236   1.000
    H77     H    0.13852   0.88376   0.13744   1.000
    H78     H    0.63914   0.38468   0.13720   1.000
    H79     H    0.63999   0.88833   0.17000   1.000
    H80     H    0.36187   0.36898   0.15319   1.000
    H81     H    0.36242   0.88516   0.13462   1.000
    H82     H    0.86300   0.38535   0.13524   1.000
    H83     H    0.86228   0.86718   0.15440   1.000
    C84     C    0.81594   0.72417   0.49250   1.000
    C85     C    0.19037   0.21266   0.50747   1.000
    C86     C    0.18435   0.72278   0.50402   1.000
    C87     C    0.68442   0.22374   0.50400   1.000
    H88     H    0.37147   0.44206   0.27187   1.000
    H89     H    0.35931   0.94478   0.26164   1.000
    H90     H    0.85963   0.44580   0.26184   1.000
    H91     H    0.87228   0.94052   0.27287   1.000
    H92     H    0.13231   0.29769   0.51750   1.000
    H93     H    0.14533   0.81277   0.49594   1.000
    H94     H    0.64462   0.31359   0.49633   1.000
    H95     H    0.63210   0.79838   0.51549   1.000
    H96     H    0.35401   0.31521   0.49014   1.000
    H97     H    0.36777   0.79775   0.49830   1.000
    H98     H    0.86728   0.29939   0.49652   1.000
    H99     H    0.85398   0.81682   0.49109   1.000
    C100    C    0.51204   0.20317   0.78894   1.000
    C101    C    0.49712   0.69804   0.77076   1.000
    C102    C    0.99760   0.19717   0.77204   1.000
    C103    C    0.00000   0.70226   0.79070   1.000
    C104    C    0.06155   0.18220   0.73480   1.000
    C105    C    0.07078   0.68049   0.74977   1.000
    C106    C    0.57204   0.18044   0.74812   1.000
    C107    C    0.56096   0.68421   0.73283   1.000
    C108    C    0.06334   0.14821   0.66438   1.000
    C109    C    0.06537   0.63969   0.68396   1.000
    C110    C    0.56613   0.13981   0.68220   1.000
    C111    C    0.56267   0.65022   0.66240   1.000
    C112    C    0.50005   0.12227   0.65618   1.000
    C113    C    0.50044   0.62962   0.62874   1.000
    C114    C    0.00000   0.12877   0.63008   1.000
    C115    C    0.99951   0.62109   0.65795   1.000
    C116    C    0.26059   0.45095   0.29048   1.000
    C117    C    0.24734   0.94595   0.27158   1.000
    C118    C    0.74764   0.44742   0.27143   1.000
    C119    C    0.76154   0.95210   0.29004   1.000
    C120    C    0.19502   0.43732   0.26109   1.000
    C121    C    0.44051   0.15083   0.69295   1.000
    C122    C    0.43649   0.64695   0.66509   1.000
    C123    C    0.93714   0.14731   0.66569   1.000
    C124    C    0.93954   0.64861   0.69490   1.000
    C125    C    0.44637   0.19068   0.75939   1.000
    C126    C    0.43492   0.68094   0.73536   1.000
    C127    C    0.93549   0.18129   0.73596   1.000
    C128    C    0.94492   0.68853   0.76134   1.000
    C129    C    0.51832   0.23302   0.86632   1.000
    C130    C    0.49433   0.72603   0.84974   1.000
    C131    C    0.99428   0.22500   0.85104   1.000
    C132    C    0.00000   0.73252   0.86802   1.000
    C133    C    0.49254   0.06879   0.59438   1.000
    C134    C    0.50174   0.58661   0.55658   1.000
    C135    C    0.00000   0.08568   0.55802   1.000
    C136    C    0.99276   0.56766   0.59595   1.000
    C137    C    0.49271   0.06489   0.00213   1.000
    C138    C    0.50758   0.56356   0.99400   1.000
    C139    C    0.00000   0.06205   0.99530   1.000
    C140    C    0.99349   0.56359   0.00382   1.000
    C141    C    0.06598   0.02623   0.99821   1.000
    C142    C    0.05992   0.53682   0.99560   1.000
    C143    C    0.55903   0.03791   0.99413   1.000
    C144    C    0.56723   0.52791   0.99655   1.000
    C145    C    0.43347   0.02794   0.00000   1.000
    C146    C    0.44132   0.53674   0.99753   1.000
    C147    C    0.94016   0.03546   0.99879   1.000
    C148    C    0.93446   0.52645   0.00000   1.000
    C149    C    0.48463   0.13259   0.00430   1.000
    C150    C    0.51523   0.62996   0.98851   1.000
    C151    C    0.00000   0.12836   0.98936   1.000
    C152    C    0.98496   0.63127   0.00592   1.000
    C153    C    0.24001   0.04897   0.71225   1.000
    C154    C    0.25274   0.55260   0.73094   1.000
    C155    C    0.75249   0.05325   0.73048   1.000
    C156    C    0.73869   0.54943   0.71229   1.000
    C157    C    0.30572   0.06330   0.74104   1.000
    C158    C    0.31487   0.56829   0.76704   1.000
    C159    C    0.81473   0.06894   0.76636   1.000
    C160    C    0.80410   0.56168   0.74249   1.000
    C161    C    0.31129   0.10371   0.80710   1.000
    C162    C    0.31330   0.60228   0.83730   1.000
    C163    C    0.81333   0.10260   0.83670   1.000
    C164    C    0.80960   0.60156   0.80890   1.000
    C165    C    0.25136   0.13104   0.84435   1.000
    C166    C    0.24939   0.62099   0.87293   1.000
    C167    C    0.74951   0.12107   0.87275   1.000
    C168    C    0.74996   0.63052   0.84505   1.000
    C169    C    0.18544   0.11168   0.81909   1.000
    C170    C    0.18710   0.60175   0.83860   1.000
    C171    C    0.68713   0.10181   0.83861   1.000
    C172    C    0.68404   0.61332   0.81827   1.000
    C173    C    0.17986   0.07051   0.75356   1.000
    C174    C    0.18882   0.56780   0.76816   1.000
    C175    C    0.68867   0.06810   0.76806   1.000
    C176    C    0.67848   0.57253   0.75248   1.000
    C177    C    0.23382   0.01843   0.63504   1.000
    C178    C    0.25599   0.52466   0.65190   1.000
    C179    C    0.75545   0.02571   0.65139   1.000
    C180    C    0.73306   0.51943   0.63485   1.000
    C181    C    0.25812   0.18508   0.90564   1.000
    C182    C    0.24804   0.66401   0.94506   1.000
    C183    C    0.74850   0.16393   0.94498   1.000
    C184    C    0.75743   0.68403   0.90682   1.000
    C185    C    0.25669   0.18568   0.49816   1.000
    C186    C    0.24380   0.68718   0.50750   1.000
    C187    C    0.74420   0.18833   0.50678   1.000
    C188    C    0.75694   0.68694   0.49805   1.000
    C189    C    0.31574   0.22268   0.49188   1.000
    C190    C    0.31012   0.71417   0.50556   1.000
    C191    C    0.81030   0.21559   0.50416   1.000
    O192    O    0.21085   0.90966   0.48738   1.000
    O193    O    0.70998   0.41075   0.48565   1.000
    O194    O    0.67198   0.90355   0.51516   1.000
    C195    C    0.69047   0.71363   0.50636   1.000
    C196    C    0.26508   0.11796   0.49560   1.000
    C197    C    0.23574   0.62071   0.51277   1.000
    C198    C    0.73685   0.12175   0.51190   1.000
    C199    C    0.76548   0.61928   0.49578   1.000
    C200    C    0.98888   0.29781   0.21260   1.000
    C201    C    0.00311   0.80211   0.23078   1.000
    C202    C    0.50322   0.30357   0.22969   1.000
    C203    C    0.48938   0.79869   0.21105   1.000
    C204    C    0.43931   0.31772   0.26736   1.000
    C205    C    0.42929   0.81988   0.25268   1.000
    C206    C    0.92863   0.32007   0.25320   1.000
    C207    C    0.93915   0.81631   0.26831   1.000
    C208    C    0.43751   0.35115   0.33803   1.000
    C209    C    0.43495   0.86051   0.31858   1.000
    C210    C    0.93412   0.36068   0.31919   1.000
    C211    C    0.93731   0.84992   0.33889   1.000
    C212    C    0.00003   0.37866   0.34553   1.000
    C213    C    0.99952   0.86970   0.37307   1.000
    C214    C    0.49971   0.37087   0.37226   1.000
    C215    C    0.50090   0.87959   0.34396   1.000
    C216    C    0.05984   0.35046   0.30896   1.000
    C217    C    0.06352   0.85190   0.33710   1.000
    C218    C    0.56369   0.35315   0.33618   1.000
    C219    C    0.56077   0.85250   0.30636   1.000
    C220    C    0.05439   0.31067   0.24242   1.000
    C221    C    0.06523   0.81832   0.26669   1.000
    C222    C    0.56535   0.31972   0.26563   1.000
    C223    C    0.55513   0.81271   0.23987   1.000
    C224    C    0.98310   0.26814   0.13508   1.000
    C225    C    0.00623   0.77477   0.15169   1.000
    C226    C    0.50611   0.27629   0.15052   1.000
    C227    C    0.48301   0.76889   0.13365   1.000
    C228    C    0.00697   0.43226   0.40731   1.000
    C229    C    0.99798   0.91246   0.44536   1.000
    C230    C    0.49813   0.41338   0.44476   1.000
    C231    C    0.50789   0.93308   0.40590   1.000
    C232    C    0.00807   0.43652   0.99911   1.000
    C233    C    0.99287   0.93801   0.00000   1.000
    C234    C    0.49456   0.43935   0.00000   1.000
    C235    C    0.50666   0.93780   0.99751   1.000
    C236    C    0.43493   0.47501   0.00000   1.000
    C237    C    0.44033   0.96476   0.00000   1.000
    C238    C    0.94163   0.46330   0.00000   1.000
    C239    C    0.93344   0.97382   0.00000   1.000
    C240    C    0.06710   0.47368   0.99336   1.000
    C241    C    0.05926   0.96460   0.00454   1.000
    C242    C    0.56083   0.46617   0.00243   1.000
    C243    C    0.56588   0.97474   0.99182   1.000
    C244    C    0.01650   0.36885   0.99701   1.000
    C245    C    0.98482   0.87169   0.00000   1.000
    C246    C    0.48673   0.37296   0.00000   1.000
    C247    C    0.51492   0.87015   0.99556   1.000
    C248    C    0.18521   0.93043   0.23541   1.000
    C249    C    0.68561   0.43183   0.23509   1.000
    C250    C    0.69611   0.93998   0.25985   1.000
    C251    C    0.18964   0.39736   0.19468   1.000
    C252    C    0.18678   0.89731   0.16470   1.000
    C253    C    0.68733   0.39827   0.16460   1.000
    C254    C    0.69055   0.90009   0.19340   1.000
    C255    C    0.24960   0.36989   0.15768   1.000
    C256    C    0.25067   0.87921   0.12870   1.000
    C257    C    0.75126   0.37974   0.12886   1.000
    C258    C    0.75014   0.87098   0.15735   1.000
    C259    C    0.31546   0.38871   0.18352   1.000
    C260    C    0.31294   0.89824   0.16321   1.000
    C261    C    0.81345   0.39877   0.16352   1.000
    C262    C    0.81609   0.88815   0.18400   1.000
    C263    C    0.32086   0.42936   0.24943   1.000
    C264    C    0.31123   0.93140   0.23403   1.000
    C265    C    0.81159   0.43239   0.23416   1.000
    C266    C    0.82171   0.92894   0.24983   1.000
    C267    C    0.26645   0.48074   0.36790   1.000
    C268    C    0.24411   0.97312   0.35081   1.000
    C269    C    0.74429   0.47518   0.35055   1.000
    C270    C    0.76725   0.98194   0.36751   1.000
    C271    C    0.24282   0.31618   0.09600   1.000
    C272    C    0.25200   0.83707   0.05593   1.000
    C273    C    0.75249   0.33729   0.05625   1.000
    C274    C    0.74262   0.81730   0.09570   1.000
    C275    C    0.24238   0.31291   0.50422   1.000
    C276    C    0.25731   0.81160   0.49660   1.000
    C277    C    0.75666   0.31284   0.49580   1.000
    C278    C    0.74223   0.81407   0.50368   1.000
    C279    C    0.18332   0.27591   0.51046   1.000
    C280    C    0.19099   0.78461   0.49859   1.000
    C281    C    0.69054   0.28560   0.49848   1.000
    C282    C    0.68322   0.77682   0.50910   1.000
    C283    C    0.30870   0.28592   0.49480   1.000
    C284    C    0.31676   0.77599   0.50007   1.000
    C285    C    0.81642   0.27744   0.49870   1.000
    C286    C    0.80870   0.78736   0.49525   1.000
    C287    C    0.23406   0.38066   0.50692   1.000
    C288    C    0.26514   0.87806   0.49126   1.000
    C289    C    0.76421   0.37932   0.49039   1.000
    C290    C    0.73370   0.88178   0.50632   1.000
    O291    O    0.46325   0.24308   0.90628   1.000
    O292    O    0.43374   0.73841   0.87950   1.000
    O293    O    0.93341   0.23737   0.88006   1.000
    O294    O    0.96103   0.74182   0.90768   1.000
    O295    O    0.05021   0.23226   0.88550   1.000
    O296    O    0.07755   0.74386   0.89180   1.000
    O297    O    0.57975   0.24323   0.88986   1.000
    O298    O    0.55070   0.73344   0.88342   1.000
    O299    O    0.43169   0.05297   0.57410   1.000
    O300    O    0.44362   0.56744   0.53005   1.000
    O301    O    0.94453   0.06689   0.53081   1.000
    O302    O    0.93228   0.55201   0.57430   1.000
    O303    O    0.06122   0.06922   0.52735   1.000
    O304    O    0.04801   0.53830   0.57063   1.000
    O305    O    0.54754   0.03957   0.56788   1.000
    O306    O    0.56034   0.57063   0.52520   1.000
    O307    O    0.42291   0.15443   0.01239   1.000
    O308    O    0.46093   0.66149   0.98446   1.000
    O309    O    0.96067   0.16020   0.98516   1.000
    O310    O    0.92323   0.65300   0.01510   1.000
    O311    O    0.07675   0.14985   0.98850   1.000
    O312    O    0.03850   0.66409   0.99744   1.000
    O313    O    0.53851   0.16535   0.99706   1.000
    O314    O    0.57712   0.65184   0.98780   1.000
    O315    O    0.17249   0.00781   0.61140   1.000
    O316    O    0.19998   0.51748   0.61700   1.000
    O317    O    0.69932   0.01873   0.61729   1.000
    O318    O    0.67189   0.50905   0.61069   1.000
    O319    O    0.28904   0.00819   0.59534   1.000
    O320    O    0.31678   0.51210   0.62286   1.000
    O321    O    0.81615   0.01326   0.62197   1.000
    O322    O    0.78857   0.50941   0.59557   1.000
    O323    O    0.20264   0.21343   0.93218   1.000
    O324    O    0.18931   0.68035   0.97580   1.000
    O325    O    0.68997   0.18118   0.97564   1.000
    O326    O    0.70282   0.71456   0.93186   1.000
    O327    O    0.31877   0.20229   0.92540   1.000
    O328    O    0.30607   0.68281   0.97220   1.000
    O329    O    0.80670   0.18177   0.97232   1.000
    O330    O    0.81812   0.69866   0.92850   1.000
    O331    O    0.21138   0.08503   0.50296   1.000
    O332    O    0.17376   0.59900   0.51270   1.000
    O333    O    0.67501   0.09973   0.51241   1.000
    O334    O    0.71180   0.58633   0.50316   1.000
    O335    O    0.32686   0.09632   0.48724   1.000
    O336    O    0.28978   0.58902   0.51742   1.000
    O337    O    0.79128   0.09036   0.51580   1.000
    O338    O    0.82729   0.59767   0.48759   1.000
    O339    O    0.03846   0.25809   0.09562   1.000
    O340    O    0.06692   0.76250   0.12219   1.000
    O341    O    0.56671   0.26408   0.12072   1.000
    O342    O    0.53802   0.75972   0.09347   1.000
    O343    O    0.44979   0.26926   0.11673   1.000
    O344    O    0.42163   0.75781   0.11029   1.000
    O345    O    0.92186   0.25810   0.11098   1.000
    O346    O    0.95007   0.76780   0.11761   1.000
    O347    O    0.06749   0.44791   0.42877   1.000
    O348    O    0.05600   0.93101   0.47270   1.000
    O349    O    0.55602   0.43225   0.47214   1.000
    O350    O    0.56862   0.94924   0.42630   1.000
    O351    O    0.43930   0.42928   0.47561   1.000
    O352    O    0.45267   0.96199   0.43234   1.000
    O353    O    0.95181   0.46180   0.43255   1.000
    O354    O    0.93918   0.92884   0.47594   1.000
    O355    O    0.07835   0.34729   0.98971   1.000
    O356    O    0.03891   0.83995   0.00000   1.000
    O357    O    0.54090   0.34122   0.00000   1.000
    O358    O    0.57671   0.84847   0.98731   1.000
    O359    O    0.42473   0.35134   0.00000   1.000
    O360    O    0.46122   0.83731   0.00000   1.000
    O361    O    0.96274   0.33577   0.00000   1.000
    O362    O    0.92281   0.85008   0.00000   1.000
    O363    O    0.32770   0.49106   0.39190   1.000
    O364    O    0.30018   0.98094   0.38505   1.000
    O365    O    0.80025   0.48241   0.38497   1.000
    O366    O    0.82845   0.99216   0.39162   1.000
    O367    O    0.21110   0.49064   0.40749   1.000
    O368    O    0.18324   0.98449   0.38019   1.000
    O369    O    0.68348   0.48765   0.37970   1.000
    O370    O    0.71183   0.99196   0.40691   1.000
    O371    O    0.29825   0.28818   0.06870   1.000
    O372    O    0.31068   0.82107   0.02486   1.000
    O373    O    0.81105   0.32025   0.02550   1.000
    O374    O    0.79727   0.78674   0.07088   1.000
    O375    O    0.18208   0.29886   0.07660   1.000
    O376    O    0.19397   0.81861   0.02853   1.000
    O377    O    0.69437   0.31962   0.02850   1.000
    O378    O    0.68190   0.80260   0.07420   1.000
    O379    O    0.28782   0.41355   0.49961   1.000
    O380    O    0.32705   0.89989   0.49047   1.000
    O381    O    0.82606   0.40133   0.49040   1.000
    O382    O    0.78733   0.91472   0.49866   1.000
    O383    O    0.17233   0.40243   0.51542   1.000
loop_
    _geom_bond_atom_site_label_1
    _geom_bond_atom_site_label_2
    _geom_bond_distance
    _geom_bond_site_symmetry_2
    _ccdc_geom_bond_type
    C234   C246      1.46852      .   S
    C234   C236      1.39747      .   S
    C234   C242      1.39646      .   S
    O362   C245      1.27856      .   S
    C246   O359      1.27844      .   S
    C246   O357      1.26115      .   S
    C245   O356      1.26001  1_655   S
    C245   C233      1.46733      .   S
    C239   C233      1.39613      .   S
    C239   H67       1.08444      .   S
    C239   C147      1.36705  1_564   S
    C238   C148      1.39960      .   S
    C238   H66       1.07929      .   S
    C238   C232      1.41133  1_654   S
    C237   H65       1.07952      .   S
    C237   C145      1.39956  1_565   S
    C237   C235      1.40826  1_554   S
    C236   H64       1.08435      .   S
    C236   C146      1.37398  1_554   S
    H20    C145      1.09676      .   S
    O361   C244      1.26377  1_654   S
    O360   C247      1.26375  1_554   S
    H23    C148      1.09678      .   S
    C233   C241      1.39645  1_655   S
    C148   C140      1.38673      .   S
    C145   C137      1.38910      .   S
    C137   C149      1.49337      .   S
    C137   C143      1.40305  1_554   S
    C242   H70       1.08952      .   S
    C242   C144      1.39063  1_554   S
    C140   C152      1.49403      .   S
    C140   C142      1.40322  1_654   S
    C149   O307      1.27792      .   S
    C149   O313      1.27439  1_554   S
    C241   H69       1.08951      .   S
    C241   C141      1.39103  1_564   S
    C152   O310      1.27754      .   S
    C152   O312      1.27470  1_654   S
    O372   C272      1.27247      .   S
    O373   C273      1.27283      .   S
    O377   C273      1.27643      .   S
    O376   C272      1.27615      .   S
    C272   C256      1.49941      .   S
    C273   C257      1.50011      .   S
    O371   C271      1.27615      .   S
    O374   C274      1.27648      .   S
    O378   C274      1.26822      .   S
    O375   C271      1.26905      .   S
    O342   C227      1.27337      .   S
    O339   C224      1.27282  1_455   S
    C274   C258      1.49563      .   S
    C271   C255      1.49484      .   S
    O344   C227      1.27991      .   S
    O345   C224      1.28005      .   S
    O343   C226      1.27140      .   S
    O346   C225      1.27153  1_655   S
    O341   C226      1.28243      .   S
    O340   C225      1.28231      .   S
    C256   C260      1.40528      .   S
    C256   C252      1.40427      .   S
    C257   C261      1.40519      .   S
    C257   C253      1.40476      .   S
    C227   C203      1.49155      .   S
    H81    C260      1.08911      .   S
    C224   C200      1.49164      .   S
    H82    C261      1.08917      .   S
    H78    C253      1.08896      .   S
    H77    C252      1.08868      .   S
    C226   C202      1.50002      .   S
    C225   C201      1.49887      .   S
    H80    C259      1.08840      .   S
    H83    C262      1.08821      .   S
    C258   C262      1.40251      .   S
    C258   C254      1.40401      .   S
    C255   C259      1.40306      .   S
    C255   C251      1.40399      .   S
    C260   C264      1.39301      .   S
    C261   C265      1.39349      .   S
    C253   C249      1.39059      .   S
    C252   C248      1.39100      .   S
    H79    C254      1.09084      .   S
    H76    C251      1.08789      .   S
    C259   C263      1.38982      .   S
    C262   C266      1.39045      .   S
    C254   C250      1.39050      .   S
    C251   C120      1.39016      .   S
    H63    C223      1.08877      .   S
    C203   C223      1.40282      .   S
    C203   C205      1.40367      .   S
    H60    C220      1.08871      .   S
    C200   C220      1.40280  1_655   S
    C200   C206      1.40286      .   S
    C202   C222      1.40449      .   S
    C202   C204      1.40332      .   S
    H50    C206      1.08714      .   S
    H49    C205      1.08780      .   S
    C201   C221      1.40427      .   S
    C201   C207      1.40316  1_455   S
    C264   H89       1.08819      .   S
    C264   C117      1.40313      .   S
    C265   H90       1.08813      .   S
    C265   C118      1.40342      .   S
    C249   H74       1.08773      .   S
    C249   C118      1.40470      .   S
    C248   H73       1.08769      .   S
    C248   C117      1.40468      .   S
    H62    C222      1.08776      .   S
    H61    C221      1.08775      .   S
    C223   C219      1.39025      .   S
    H48    C204      1.08813      .   S
    H51    C207      1.08812      .   S
    C220   C216      1.39067      .   S
    C263   H88       1.08775      .   S
    C263   C116      1.40344      .   S
    C266   H91       1.08772      .   S
    C266   C119      1.40347      .   S
    C205   C209      1.38993      .   S
    C206   C210      1.39073      .   S
    C250   C119      1.40267      .   S
    C250   H75       1.08821      .   S
    C120   C116      1.40278      .   S
    C120   H72       1.08864      .   S
    C222   C218      1.39062      .   S
    C221   C217      1.38946      .   S
    C204   C208      1.39258      .   S
    C207   C211      1.39241      .   S
    C118   C269      1.50133      .   S
    C117   C268      1.50063      .   S
    C119   C270      1.49153      .   S
    C116   C267      1.49075      .   S
    C219   H59       1.08779      .   S
    C219   C215      1.40405      .   S
    C216   H56       1.08791      .   S
    C216   C212      1.40388      .   S
    C209   C215      1.40309      .   S
    C209   H53       1.08841      .   S
    C210   C212      1.40319  1_655   S
    C210   H54       1.08839      .   S
    C218   H58       1.08886      .   S
    C218   C214      1.40448      .   S
    C217   H57       1.08903      .   S
    C217   C213      1.40453  1_455   S
    C208   H52       1.08910      .   S
    C208   C214      1.40499      .   S
    C211   H55       1.08912      .   S
    C211   C213      1.40486      .   S
    C215   C231      1.49540      .   S
    C212   C228      1.49486      .   S
    C269   O369      1.28252      .   S
    C269   O365      1.27173      .   S
    C268   O368      1.28207      .   S
    C268   O364      1.27190      .   S
    C270   O366      1.27968      .   S
    C270   O370      1.27301      .   S
    C267   O363      1.28000      .   S
    C267   O367      1.27365      .   S
    C214   C230      1.49888      .   S
    C213   C229      1.49820      .   S
    C231   O350      1.26848      .   S
    C231   O352      1.27695      .   S
    C228   O347      1.26844      .   S
    C228   O353      1.27635  1_455   S
    C230   O349      1.27579      .   S
    C230   O351      1.27287      .   S
    C229   O348      1.27603  1_655   S
    C229   O354      1.27257      .   S
    H40    C189      1.08867      .   S
    O193   C289      1.27425      .   S
    H43    C84       1.08870      .   S
    O335   C196      1.27740      .   S
    O192   C288      1.27402      .   S
    O338   C199      1.27761      .   S
    H96    C283      1.08942      .   S
    C289   O381      1.27886      .   S
    C289   C277      1.49363      .   S
    O380   C288      1.27909      .   S
    H99    C286      1.08966      .   S
    C288   C276      1.49335      .   S
    C189   C283      1.39097      .   S
    C189   C185      1.40517      .   S
    C84    C286      1.39084      .   S
    C84    C188      1.40506      .   S
    C283   C275      1.40315      .   S
    C286   C278      1.40323      .   S
    C196   C185      1.49330      .   S
    C196   O331      1.27436      .   S
    C199   C188      1.49327      .   S
    C199   O334      1.27437      .   S
    C277   C281      1.40290      .   S
    C277   C285      1.40522      .   S
    H93    C280      1.08946      .   S
    H94    C281      1.08955      .   S
    H98    C285      1.08855      .   S
    C276   C280      1.40296      .   S
    C276   C284      1.40498      .   S
    C188   C195      1.40314      .   S
    C185   C85       1.40310      .   S
    H97    C284      1.08870      .   S
    C281   C87       1.39089      .   S
    C280   C86       1.39039      .   S
    O382   C290      1.27454      .   S
    C285   C191      1.39052      .   S
    O379   C287      1.27446      .   S
    C284   C190      1.39081      .   S
    C278   C290      1.49313      .   S
    C278   C282      1.40486      .   S
    C87    H46       1.08862      .   S
    C87    C187      1.40519      .   S
    C86    H45       1.08859      .   S
    C86    C186      1.40497      .   S
    C191   H42       1.08946      .   S
    C191   C187      1.40280      .   S
    C275   C287      1.49329      .   S
    C275   C279      1.40509      .   S
    C190   C186      1.40286      .   S
    C190   H41       1.08951      .   S
    C290   O194      1.27745      .   S
    C195   C282      1.39100      .   S
    C195   H47       1.08963      .   S
    C187   C198      1.49399      .   S
    C287   O383      1.27750      .   S
    C85    C279      1.39090      .   S
    C85    H44       1.08963      .   S
    C186   C197      1.49355      .   S
    C282   H95       1.08865      .   S
    C279   H92       1.08868      .   S
    C198   O333      1.27921      .   S
    C198   O337      1.27367      .   S
    O332   C197      1.27886      .   S
    C197   O336      1.27410      .   S
    O306   C134      1.27303      .   S
    O303   C135      1.31445      .   S
    O300   C134      1.27537      .   S
    O301   C135      1.23320  1_655   S
    C134   C113      1.49873      .   S
    C135   C114      1.49853      .   S
    O305   C133      1.27662      .   S
    O304   C136      1.27626  1_455   S
    O299   C133      1.26843      .   S
    O302   C136      1.26865      .   S
    C133   C112      1.49464      .   S
    O319   C177      1.27312      .   S
    O322   C180      1.27325      .   S
    C136   C115      1.49482      .   S
    O318   C180      1.27988      .   S
    O315   C177      1.27987      .   S
    O316   C178      1.27710      .   S
    O317   C179      1.27141      .   S
    O321   C179      1.28225      .   S
    O320   C178      1.28179      .   S
    C113   C111      1.40490      .   S
    C113   C122      1.40455      .   S
    C114   C108      1.42329      .   S
    C114   C123      1.38616  1_455   S
    H7     C111      1.08920      .   S
    C180   C156      1.49168      .   S
    C177   C153      1.49192      .   S
    H4     C108      1.08906      .   S
    H9     C122      1.08879      .   S
    H10    C123      1.08885      .   S
    C179   C155      1.49975      .   S
    C178   C154      1.50073      .   S
    H6     C110      1.08767      .   S
    H5     C109      1.08841      .   S
    C112   C110      1.40247      .   S
    C112   C121      1.40403      .   S
    C115   C109      1.40316  1_655   S
    C115   C124      1.40383      .   S
    C111   C107      1.39281      .   S
    C108   C104      1.39269      .   S
    C122   C126      1.39028      .   S
    C123   C127      1.39018      .   S
    H8     C121      1.08793      .   S
    H11    C124      1.08794      .   S
    C110   C106      1.39075      .   S
    C109   C105      1.38984      .   S
    C121   C125      1.39052      .   S
    C124   C128      1.39032      .   S
    H24    C157      1.08864      .   S
    H27    C160      1.08874      .   S
    C153   C157      1.40284      .   S
    C153   C173      1.40346      .   S
    C156   C160      1.40277      .   S
    C156   C176      1.40343      .   S
    H39    C176      1.08769      .   S
    C155   C159      1.40446      .   S
    C155   C175      1.40313      .   S
    C154   C158      1.40458      .   S
    C154   C174      1.40306      .   S
    H36    C173      1.08783      .   S
    C107   H3        1.08819      .   S
    C107   C101      1.40336      .   S
    C104   H0        1.08807      .   S
    C104   C102      1.40296  1_455   S
    C126   H13       1.08777      .   S
    C126   C101      1.40430      .   S
    C127   H14       1.08766      .   S
    C127   C102      1.40458      .   S
    H26    C159      1.08766      .   S
    H25    C158      1.08777      .   S
    H37    C174      1.08817      .   S
    H38    C175      1.08810      .   S
    C157   C161      1.38993      .   S
    C160   C164      1.38957      .   S
    C106   H2        1.08769      .   S
    C106   C100      1.40349      .   S
    C105   H1        1.08777      .   S
    C105   C103      1.57125      .   S
    C176   C172      1.38973      .   S
    C173   C169      1.38986      .   S
    C125   C100      1.40269      .   S
    C125   H12       1.08874      .   S
    C128   C103      1.22173  1_655   S
    C128   H15       1.08859      .   S
    C159   C163      1.38901      .   S
    C158   C162      1.39017      .   S
    C175   C171      1.39280      .   S
    C174   C170      1.39272      .   S
    C101   C130      1.49985      .   S
    C102   C131      1.49956      .   S
    C100   C129      1.49128      .   S
    C103   C132      1.48360      .   S
    C161   H28       1.08747      .   S
    C161   C165      1.40406      .   S
    C164   H31       1.08829      .   S
    C164   C168      1.40445      .   S
    C172   C168      1.40297      .   S
    C172   H35       1.08831      .   S
    C169   C165      1.40322      .   S
    C169   H32       1.08823      .   S
    C163   H30       1.08888      .   S
    C163   C167      1.40501      .   S
    C162   H29       1.08895      .   S
    C162   C166      1.40432      .   S
    C170   H33       1.08909      .   S
    C170   C166      1.40503      .   S
    C171   H34       1.08915      .   S
    C171   C167      1.40502      .   S
    C165   C181      1.49487      .   S
    C168   C184      1.49465      .   S
    C130   O292      1.28259      .   S
    C130   O298      1.27138      .   S
    C131   O293      1.28234      .   S
    C131   O295      1.27154  1_655   S
    C129   O297      1.27997      .   S
    C129   O291      1.27313      .   S
    C132   O296      1.57681      .   S
    C132   O294      1.03321  1_455   S
    C167   C183      1.49846      .   S
    C166   C182      1.49843      .   S
    C181   O327      1.26883      .   S
    C181   O323      1.27624      .   S
    C184   O330      1.26829      .   S
    C184   O326      1.27662      .   S
    C183   O329      1.27571      .   S
    C183   O325      1.27258      .   S
    C182   O328      1.27593      .   S
    C182   O324      1.27241      .   S
    O308   C150      1.27390      .   S
    O309   C151      1.05365  1_655   S
    H71    C243      1.08862      .   S
    H68    C240      1.08869      .   S
    O358   C247      1.27778      .   S
    O314   C150      1.27909      .   S
    O311   C151      1.54482      .   S
    C150   C138      1.49249      .   S
    C151   C139      1.48769      .   S
    O355   C244      1.27796      .   S
    H18    C143      1.08959      .   S
    H17    C142      1.08964      .   S
    C243   C143      1.39108  1_565   S
    C243   C235      1.40520      .   S
    C240   C142      1.39113      .   S
    C240   C232      1.40522      .   S
    H19    C144      1.08860      .   S
    C138   C144      1.40531      .   S
    C138   C146      1.40292      .   S
    C139   C141      1.51045      .   S
    C139   C147      1.29029  1_455   S
    H16    C141      1.08859      .   S
    C247   C235      1.49345      .   S
    H21    C146      1.08947      .   S
    H22    C147      1.08953      .   S
    C244   C232      1.49377      .   S
