# CIF file generated by openbabel 2.4.90, see http://openbabel.sf.net
data_I
_chemical_name_common ''
_cell_length_a 19.226
_cell_length_b 22.029
_cell_length_c 18.973
_cell_angle_alpha 101.661
_cell_angle_beta 87.803
_cell_angle_gamma 90.678
_space_group_name_H-M_alt 'P 1'
_space_group_name_Hall 'P 1'
loop_
    _symmetry_equiv_pos_as_xyz
    x,y,z
loop_
    _atom_site_label
    _atom_site_type_symbol
    _atom_site_fract_x
    _atom_site_fract_y
    _atom_site_fract_z
    _atom_site_occupancy
    N0      N    0.50596   0.15801   0.72566   1.000
    N1      N    0.00328   0.65705   0.72739   1.000
    N2      N    0.99852   0.15997   0.70233   1.000
    N3      N    0.49825   0.66088   0.70100   1.000
    N4      N    0.75161   0.09016   0.80035   1.000
    N5      N    0.25166   0.58975   0.80064   1.000
    N6      N    0.75048   0.25057   0.50124   1.000
    N7      N    0.74959   0.75052   0.50093   1.000
    N8      N    0.50102   0.50146   0.99656   1.000
    N9      N    0.49973   0.00135   0.99737   1.000
    N10     N    0.99453   0.34300   0.27593   1.000
    N11     N    0.00184   0.83894   0.30066   1.000
    N12     N    0.50192   0.34020   0.29976   1.000
    N13     N    0.49514   0.84385   0.27442   1.000
    N14     N    0.74456   0.59467   0.77554   1.000
    N15     N    0.24567   0.09469   0.77512   1.000
    N16     N    0.24955   0.24930   0.50121   1.000
    N17     N    0.25049   0.74939   0.50203   1.000
    N18     N    0.99841   0.00002   0.99741   1.000
    N19     N    0.25504   0.40566   0.22721   1.000
    N20     N    0.24840   0.90966   0.20131   1.000
    N21     N    0.74880   0.41071   0.20132   1.000
    N22     N    0.75562   0.90680   0.22682   1.000
    N23     N    0.00075   0.50005   0.99847   1.000
    Zr24    Zr   0.75116   0.49973   0.49415   1.000
    O25     O    0.85013   0.54570   0.56240   1.000
    O26     O    0.85038   0.45592   0.43182   1.000
    O27     O    0.65116   0.45130   0.44287   1.000
    O28     O    0.65078   0.54877   0.54981   1.000
    Zr29    Zr   0.00154   0.24906   0.99449   1.000
    O30     O    0.10099   0.20609   0.93179   1.000
    O31     O    0.10077   0.29451   0.06287   1.000
    O32     O    0.90126   0.29829   0.05014   1.000
    O33     O    0.90142   0.20085   0.94325   1.000
    Zr34    Zr   0.24861   0.50020   0.50853   1.000
    O35     O    0.14916   0.45428   0.44053   1.000
    O36     O    0.14891   0.54409   0.57112   1.000
    O37     O    0.34907   0.45141   0.45211   1.000
    O38     O    0.34870   0.54885   0.55922   1.000
    Zr39    Zr   0.50136   0.75040   0.99333   1.000
    O40     O    0.60079   0.79617   0.06170   1.000
    O41     O    0.60064   0.70714   0.93109   1.000
    O42     O    0.40099   0.79891   0.04939   1.000
    O43     O    0.40123   0.70165   0.94264   1.000
    Zr44    Zr   0.99870   0.75109   0.00485   1.000
    O45     O    0.09883   0.79930   0.05632   1.000
    O46     O    0.09906   0.70204   0.94956   1.000
    O47     O    0.89946   0.79434   0.06920   1.000
    O48     O    0.89930   0.70530   0.93859   1.000
    Zr49    Zr   0.49950   0.25236   0.00377   1.000
    O50     O    0.39995   0.29509   0.06821   1.000
    O51     O    0.40017   0.20661   0.93728   1.000
    O52     O    0.59946   0.30043   0.05578   1.000
    O53     O    0.59962   0.20298   0.94892   1.000
    Zr54    Zr   0.25146   0.99835   0.49443   1.000
    O55     O    0.35083   0.95532   0.43153   1.000
    O56     O    0.35091   0.04524   0.56206   1.000
    O57     O    0.15133   0.94993   0.44341   1.000
    O58     O    0.15115   0.04747   0.55066   1.000
    Zr59    Zr   0.74891   0.00071   0.50782   1.000
    O60     O    0.64969   0.04481   0.56986   1.000
    O61     O    0.64963   0.95497   0.43935   1.000
    O62     O    0.84907   0.04889   0.55925   1.000
    O63     O    0.84923   0.95137   0.45197   1.000
    O64     O    0.25319   0.07263   0.49621   1.000
    O65     O    0.24653   0.42595   0.50657   1.000
    O66     O    0.24742   0.02364   0.57822   1.000
    O67     O    0.25340   0.92441   0.49564   1.000
    O68     O    0.24948   0.97422   0.40717   1.000
    O69     O    0.99711   0.27367   0.07845   1.000
    O70     O    0.74689   0.52465   0.57812   1.000
    O71     O    0.24698   0.57422   0.50772   1.000
    O72     O    0.99640   0.82506   0.00238   1.000
    O73     O    0.00290   0.17504   0.99427   1.000
    O74     O    0.74941   0.47564   0.40696   1.000
    O75     O    0.75310   0.42573   0.49515   1.000
    O76     O    0.75307   0.57396   0.49599   1.000
    O77     O    0.00071   0.77481   0.09318   1.000
    O78     O    0.50348   0.67645   0.99324   1.000
    O79     O    0.49711   0.77481   0.07717   1.000
    O80     O    0.50315   0.82470   0.99438   1.000
    O81     O    0.49944   0.72621   0.90627   1.000
    O82     O    0.50120   0.27611   0.09213   1.000
    O83     O    0.75324   0.97615   0.42400   1.000
    O84     O    0.99699   0.67676   0.00343   1.000
    O85     O    0.00372   0.32336   0.99553   1.000
    O86     O    0.00242   0.72654   0.92235   1.000
    O87     O    0.50386   0.22762   0.92103   1.000
    O88     O    0.49779   0.32638   0.00149   1.000
    O89     O    0.49721   0.17805   0.00229   1.000
    O90     O    0.25282   0.47540   0.42460   1.000
    O91     O    0.75069   0.02499   0.59493   1.000
    O92     O    0.99957   0.22500   0.90749   1.000
    O93     O    0.74733   0.07497   0.50696   1.000
    O94     O    0.74667   0.92672   0.50598   1.000
    O95     O    0.25060   0.52441   0.59548   1.000
loop_
    _geom_bond_atom_site_label_1
    _geom_bond_atom_site_label_2
    _geom_bond_distance
    _geom_bond_site_symmetry_2
    _ccdc_geom_bond_type
    Zr24   O25       2.43646      .   S
    N1     O25       4.68150  1_455   S
    Zr24   O26       2.31908      .   S
    N10    O26       4.37917      .   S
    Zr24   O27       2.33585      .   S
    N12    O27       4.39776      .   S
    Zr24   O28       2.33210      .   S
    N3     O28       4.42606      .   S
    Zr29   O30       2.31958      .   S
    N15    O30       4.37886      .   S
    Zr29   O31       2.43810  1_556   S
    N19    O31       4.68690      .   S
    Zr29   O32       2.33212  1_456   S
    N21    O32       4.42807      .   S
    Zr29   O33       2.33579  1_455   S
    N4     O33       4.39909      .   S
    Zr34   O35       2.44130      .   S
    N10    O35       4.69523  1_655   S
    Zr34   O36       2.32917      .   S
    N1     O36       4.40077      .   S
    Zr34   O37       2.33598      .   S
    N12    O37       4.43275      .   S
    Zr34   O38       2.33507      .   S
    N3     O38       4.39726      .   S
    Zr39   O40       2.44316  1_556   S
    N22    O40       4.69812      .   S
    Zr39   O41       2.31556      .   S
    N14    O41       4.36857      .   S
    Zr39   O42       2.32988  1_556   S
    N20    O42       4.42105      .   S
    Zr39   O43       2.33679      .   S
    N5     O43       4.39831      .   S
    Zr44   O45       2.33751  1_655   S
    N20    O45       4.41426      .   S
    Zr44   O46       2.32953  1_654   S
    N5     O46       4.40687      .   S
    Zr44   O47       2.33098      .   S
    N22    O47       4.38874      .   S
    Zr44   O48       2.42412  1_554   S
    N14    O48       4.67398      .   S
    Zr49   O50       2.33291      .   S
    N19    O50       4.39777      .   S
    Zr49   O51       2.42468  1_554   S
    N15    O51       4.67218      .   S
    Zr49   O52       2.33745      .   S
    N21    O52       4.41612      .   S
    Zr49   O53       2.32582  1_554   S
    N4     O53       4.40128      .   S
    Zr54   O55       2.32016      .   S
    N13    O55       4.37976      .   S
    Zr54   O56       2.44435  1_565   S
    N0     O56       4.70216      .   S
    Zr54   O57       2.33620      .   S
    N11    O57       4.39625      .   S
    Zr54   O58       2.33524  1_565   S
    N2     O58       4.43576  1_655   S
    Zr59   O60       2.31886      .   S
    N0     O60       4.37619      .   S
    Zr59   O61       2.44170  1_545   S
    N13    O61       4.69580      .   S
    Zr59   O62       2.33745      .   S
    N2     O62       4.39993      .   S
    Zr59   O63       2.33488  1_545   S
    N11    O63       4.43139  1_455   S
    N16    O64       3.87535      .   S
    Zr54   O64       1.62978  1_565   S
    N16    O65       3.87310      .   S
    Zr34   O65       1.62860      .   S
    Zr54   O66       1.57391  1_565   S
    N15    O66       3.74626      .   S
    Zr54   O67       1.63445      .   S
    N17    O67       3.88160      .   S
    Zr54   O68       1.63501      .   S
    N20    O68       3.87792      .   S
    N10    O69       3.74790      .   S
    Zr29   O69       1.57489  1_456   S
    N14    O70       3.75031      .   S
    Zr24   O70       1.57604      .   S
    N17    O71       3.88169      .   S
    Zr34   O71       1.63450      .   S
    N18    O72       3.87415  1_546   S
    Zr44   O72       1.64087      .   S
    N18    O73       3.86792  1_655   S
    Zr29   O73       1.63005      .   S
    Zr24   O74       1.63335      .   S
    N21    O74       3.87502      .   S
    Zr24   O75       1.63504      .   S
    N6     O75       3.88322      .   S
    Zr24   O76       1.62848      .   S
    N7     O76       3.87283      .   S
    N11    O77       3.90511      .   S
    Zr44   O77       1.65345  1_655   S
    Zr39   O78       1.62976      .   S
    N8     O78       3.86779      .   S
    Zr39   O79       1.57205  1_556   S
    N13    O79       3.74288      .   S
    Zr39   O80       1.63278      .   S
    N9     O80       3.88171  1_545   S
    Zr39   O81       1.63173      .   S
    N3     O81       3.87028      .   S
    N12    O82       3.90729      .   S
    Zr49   O82       1.65379      .   S
    N22    O83       3.74299      .   S
    Zr59   O83       1.57220  1_545   S
    N23    O84       3.87617  1_456   S
    Zr44   O84       1.63206      .   S
    N23    O85       3.88249      .   S
    Zr29   O85       1.63313      .   S
    Zr44   O86       1.54854  1_654   S
    N1     O86       3.70584      .   S
    Zr49   O87       1.55351  1_554   S
    N0     O87       3.71276      .   S
    Zr49   O88       1.64048      .   S
    N8     O88       3.87665  1_556   S
    Zr49   O89       1.63165      .   S
    N9     O89       3.87549  1_556   S
    N19    O90       3.74833      .   S
    Zr34   O90       1.57495      .   S
    N4     O91       3.87228      .   S
    Zr59   O91       1.63255      .   S
    Zr29   O92       1.63032  1_455   S
    N2     O92       3.86725      .   S
    Zr59   O93       1.63981      .   S
    N6     O93       3.89143      .   S
    Zr59   O94       1.62347  1_545   S
    N7     O94       3.86428      .   S
    Zr34   O95       1.62979      .   S
    N5     O95       3.86829      .   S
