# CIF file generated by openbabel 2.4.90, see http://openbabel.sf.net
data_I
_chemical_name_common ''
_cell_length_a 19.226
_cell_length_b 22.029
_cell_length_c 18.973
_cell_angle_alpha 101.661
_cell_angle_beta 87.803
_cell_angle_gamma 90.678
_space_group_name_H-M_alt 'P 1'
_space_group_name_Hall 'P 1'
loop_
    _symmetry_equiv_pos_as_xyz
    x,y,z
loop_
    _atom_site_label
    _atom_site_type_symbol
    _atom_site_fract_x
    _atom_site_fract_y
    _atom_site_fract_z
    _atom_site_occupancy
    N0      N    0.50596   0.15801   0.72566   1.000
    N1      N    0.00328   0.65705   0.72739   1.000
    N2      N    0.99852   0.15997   0.70233   1.000
    N3      N    0.49825   0.66088   0.70100   1.000
    N4      N    0.75161   0.09016   0.80035   1.000
    N5      N    0.25166   0.58975   0.80064   1.000
    N6      N    0.75048   0.25057   0.50124   1.000
    N7      N    0.74959   0.75052   0.50093   1.000
    N8      N    0.50102   0.50146   0.99656   1.000
    N9      N    0.49973   0.00135   0.99737   1.000
    N10     N    0.99453   0.34300   0.27593   1.000
    N11     N    0.00184   0.83894   0.30066   1.000
    N12     N    0.50192   0.34020   0.29976   1.000
    N13     N    0.49514   0.84385   0.27442   1.000
    N14     N    0.74456   0.59467   0.77554   1.000
    N15     N    0.24567   0.09469   0.77512   1.000
    N16     N    0.24955   0.24930   0.50121   1.000
    N17     N    0.25049   0.74939   0.50203   1.000
    N18     N    0.99841   0.00002   0.99741   1.000
    N19     N    0.25504   0.40566   0.22721   1.000
    N20     N    0.24840   0.90966   0.20131   1.000
    N21     N    0.74880   0.41071   0.20132   1.000
    N22     N    0.75562   0.90680   0.22682   1.000
    N23     N    0.00075   0.50005   0.99847   1.000
    Zr24    Zr   0.75116   0.49973   0.49415   1.000
    O25     O    0.77000   0.47542   0.40722   1.000
    O26     O    0.76748   0.52478   0.57710   1.000
    O27     O    0.85013   0.54570   0.56240   1.000
    O28     O    0.77358   0.57478   0.49495   1.000
    O29     O    0.77365   0.42525   0.49538   1.000
    O30     O    0.85038   0.45592   0.43182   1.000
    O31     O    0.73255   0.42621   0.49493   1.000
    O32     O    0.65116   0.45130   0.44287   1.000
    O33     O    0.72881   0.47586   0.40671   1.000
    O34     O    0.65078   0.54877   0.54981   1.000
    O35     O    0.73255   0.57314   0.49704   1.000
    O36     O    0.72630   0.52452   0.57913   1.000
    Zr37    Zr   0.00154   0.24906   0.99449   1.000
    O38     O    0.02344   0.17447   0.99441   1.000
    O39     O    0.10099   0.20609   0.93179   1.000
    O40     O    0.02423   0.32416   0.99482   1.000
    O41     O    0.10077   0.29451   0.06287   1.000
    O42     O    0.02015   0.22476   0.90776   1.000
    O43     O    0.01769   0.27374   0.07743   1.000
    O44     O    0.90126   0.29829   0.05014   1.000
    O45     O    0.97654   0.27360   0.07948   1.000
    O46     O    0.98321   0.32257   0.99624   1.000
    O47     O    0.98236   0.17562   0.99412   1.000
    O48     O    0.90142   0.20085   0.94325   1.000
    O49     O    0.97899   0.22525   0.90722   1.000
    Zr50    Zr   0.24861   0.50020   0.50853   1.000
    O51     O    0.14916   0.45428   0.44053   1.000
    O52     O    0.23224   0.47529   0.42569   1.000
    O53     O    0.22643   0.57477   0.50754   1.000
    O54     O    0.22602   0.42518   0.50768   1.000
    O55     O    0.14891   0.54409   0.57112   1.000
    O56     O    0.23000   0.52467   0.59523   1.000
    O57     O    0.26704   0.42672   0.50547   1.000
    O58     O    0.26752   0.57368   0.50790   1.000
    O59     O    0.27340   0.47550   0.42351   1.000
    O60     O    0.34907   0.45141   0.45211   1.000
    O61     O    0.27119   0.52415   0.59573   1.000
    O62     O    0.34870   0.54885   0.55922   1.000
    Zr63    Zr   0.50136   0.75040   0.99333   1.000
    O64     O    0.60079   0.79617   0.06170   1.000
    O65     O    0.60064   0.70714   0.93109   1.000
    O66     O    0.52367   0.82555   0.99347   1.000
    O67     O    0.52404   0.67599   0.99333   1.000
    O68     O    0.51768   0.77508   0.07601   1.000
    O69     O    0.52005   0.72605   0.90640   1.000
    O70     O    0.48293   0.67691   0.99315   1.000
    O71     O    0.40099   0.79891   0.04939   1.000
    O72     O    0.48264   0.82386   0.99529   1.000
    O73     O    0.40123   0.70165   0.94264   1.000
    O74     O    0.47654   0.77454   0.07834   1.000
    O75     O    0.47883   0.72638   0.90614   1.000
    Zr76    Zr   0.99870   0.75109   0.00485   1.000
    O77     O    0.09883   0.79930   0.05632   1.000
    O78     O    0.01695   0.82456   0.00178   1.000
    O79     O    0.01748   0.67758   0.00172   1.000
    O80     O    0.02131   0.77460   0.09286   1.000
    O81     O    0.09906   0.70204   0.94956   1.000
    O82     O    0.02300   0.72680   0.92075   1.000
    O83     O    0.98012   0.77501   0.09350   1.000
    O84     O    0.97649   0.67594   0.00514   1.000
    O85     O    0.89946   0.79434   0.06920   1.000
    O86     O    0.97585   0.82556   0.00299   1.000
    O87     O    0.98185   0.72629   0.92394   1.000
    O88     O    0.89930   0.70530   0.93859   1.000
    Zr89    Zr   0.49950   0.25236   0.00377   1.000
    O90     O    0.39995   0.29509   0.06821   1.000
    O91     O    0.48061   0.27636   0.09235   1.000
    O92     O    0.48330   0.22754   0.92252   1.000
    O93     O    0.47725   0.32694   0.00196   1.000
    O94     O    0.47670   0.17730   0.00371   1.000
    O95     O    0.40017   0.20661   0.93728   1.000
    O96     O    0.51771   0.17880   0.00086   1.000
    O97     O    0.59946   0.30043   0.05578   1.000
    O98     O    0.51834   0.32581   0.00102   1.000
    O99     O    0.52442   0.22770   0.91953   1.000
    O100    O    0.59962   0.20298   0.94892   1.000
    O101    O    0.52179   0.27586   0.09191   1.000
    Zr102   Zr   0.25146   0.99835   0.49443   1.000
    O103    O    0.27370   0.07348   0.49509   1.000
    O104    O    0.27008   0.97415   0.40734   1.000
    O105    O    0.26801   0.02381   0.57708   1.000
    O106    O    0.35083   0.95532   0.43153   1.000
    O107    O    0.35091   0.04524   0.56206   1.000
    O108    O    0.27396   0.92395   0.49570   1.000
    O109    O    0.23268   0.07178   0.49733   1.000
    O110    O    0.22887   0.97430   0.40701   1.000
    O111    O    0.15133   0.94993   0.44341   1.000
    O112    O    0.23285   0.92487   0.49559   1.000
    O113    O    0.15115   0.04747   0.55066   1.000
    O114    O    0.22684   0.02347   0.57936   1.000
    Zr115   Zr   0.74891   0.00071   0.50782   1.000
    O116    O    0.72676   0.07546   0.50682   1.000
    O117    O    0.73265   0.97605   0.42503   1.000
    O118    O    0.64969   0.04481   0.56986   1.000
    O119    O    0.73008   0.02524   0.59471   1.000
    O120    O    0.64963   0.95497   0.43935   1.000
    O121    O    0.72616   0.92593   0.50709   1.000
    O122    O    0.76719   0.92750   0.50488   1.000
    O123    O    0.76790   0.07447   0.50710   1.000
    O124    O    0.77384   0.97625   0.42297   1.000
    O125    O    0.77130   0.02473   0.59515   1.000
    O126    O    0.84907   0.04889   0.55925   1.000
    O127    O    0.84923   0.95137   0.45197   1.000
loop_
    _geom_bond_atom_site_label_1
    _geom_bond_atom_site_label_2
    _geom_bond_distance
    _geom_bond_site_symmetry_2
    _ccdc_geom_bond_type
    Zr24   O25       1.65521      .   S
    N21    O25       3.91361      .   S
    Zr24   O26       1.60091      .   S
    N14    O26       3.77962      .   S
    Zr24   O27       2.43646      .   S
    N1     O27       4.68150  1_455   S
    Zr24   O28       1.70078      .   S
    N7     O28       3.88247      .   S
    Zr24   O29       1.70664      .   S
    N6     O29       3.89187      .   S
    Zr24   O30       2.31908      .   S
    N10    O30       4.37917      .   S
    Zr24   O31       1.65745      .   S
    N6     O31       3.91474      .   S
    Zr24   O32       2.33585      .   S
    N12    O32       4.39776      .   S
    Zr24   O33       1.70589      .   S
    N21    O33       3.87678      .   S
    Zr24   O34       2.33210      .   S
    N3     O34       4.42606      .   S
    Zr24   O35       1.65003      .   S
    N7     O35       3.90326      .   S
    Zr24   O36       1.64860      .   S
    N14    O36       3.76260      .   S
    Zr37   O38       1.70059      .   S
    N18    O38       3.87885  1_655   S
    Zr37   O39       2.31958      .   S
    N15    O39       4.37886      .   S
    Zr37   O40       1.70483      .   S
    N23    O40       3.89270      .   S
    Zr37   O41       2.43810  1_556   S
    N19    O41       4.68690      .   S
    Zr37   O42       1.65099      .   S
    N2     O42       3.90686  1_655   S
    Zr37   O43       1.59858  1_556   S
    N10    O43       3.77814  1_655   S
    Zr37   O44       2.33212  1_456   S
    N21    O44       4.42807      .   S
    Zr37   O45       1.64848  1_456   S
    N10    O45       3.75920      .   S
    Zr37   O46       1.65492  1_455   S
    N23    O46       3.91219  1_455   S
    Zr37   O47       1.65369  1_455   S
    N18    O47       3.89726      .   S
    Zr37   O48       2.33579  1_455   S
    N4     O48       4.39909      .   S
    Zr37   O49       1.70407  1_455   S
    N2     O49       3.86799      .   S
    Zr50   O51       2.44130      .   S
    N10    O51       4.69523  1_655   S
    Zr50   O52       1.59872      .   S
    N19    O52       3.77881      .   S
    Zr50   O53       1.70590      .   S
    N17    O53       3.89088      .   S
    Zr50   O54       1.70093      .   S
    N16    O54       3.88262      .   S
    Zr50   O55       2.32917      .   S
    N1     O55       4.40077      .   S
    Zr50   O56       1.65094      .   S
    N5     O56       3.90748      .   S
    Zr50   O57       1.65008      .   S
    N16    O57       3.90363      .   S
    Zr50   O58       1.65709      .   S
    N17    O58       3.91266      .   S
    Zr50   O59       1.64858      .   S
    N19    O59       3.75944      .   S
    Zr50   O60       2.33598      .   S
    N12    O60       4.43275      .   S
    Zr50   O61       1.70320      .   S
    N5     O61       3.86951      .   S
    Zr50   O62       2.33507      .   S
    N3     O62       4.39726      .   S
    Zr63   O64       2.44316  1_556   S
    N22    O64       4.69812      .   S
    Zr63   O65       2.31556      .   S
    N14    O65       4.36857      .   S
    Zr63   O66       1.70455      .   S
    N9     O66       3.89105  1_545   S
    Zr63   O67       1.70117      .   S
    N8     O67       3.87750      .   S
    Zr63   O68       1.59475  1_556   S
    N13    O68       3.77351      .   S
    Zr63   O69       1.65504      .   S
    N3     O69       3.90791      .   S
    Zr63   O70       1.65263      .   S
    N8     O70       3.89841      .   S
    Zr63   O71       2.32988  1_556   S
    N20    O71       4.42105      .   S
    Zr63   O72       1.65460      .   S
    N9     O72       3.91234  1_545   S
    Zr63   O73       2.33679      .   S
    N5     O73       4.39831      .   S
    Zr63   O74       1.64681  1_556   S
    N13    O74       3.75386      .   S
    Zr63   O75       1.70297      .   S
    N3     O75       3.87304      .   S
    Zr76   O77       2.33751  1_655   S
    N20    O77       4.41426      .   S
    Zr76   O78       1.66409  1_655   S
    N18    O78       3.90374  1_646   S
    Zr76   O79       1.65198  1_655   S
    N23    O79       3.90839  1_556   S
    Zr76   O80       1.71652  1_655   S
    N11    O80       3.91573      .   S
    Zr76   O81       2.32953  1_654   S
    N5     O81       4.40687      .   S
    Zr76   O82       1.62919  1_654   S
    N1     O82       3.71186      .   S
    Zr76   O83       1.68366      .   S
    N11    O83       3.93450  1_455   S
    Zr76   O84       1.70581      .   S
    N23    O84       3.88399  1_456   S
    Zr76   O85       2.33098      .   S
    N22    O85       4.38874      .   S
    Zr76   O86       1.71109      .   S
    N18    O86       3.88470  1_546   S
    Zr76   O87       1.56677  1_554   S
    N1     O87       3.74189  1_455   S
    Zr76   O88       2.42412  1_554   S
    N14    O88       4.67398      .   S
    Zr89   O90       2.33291      .   S
    N19    O90       4.39777      .   S
    Zr89   O91       1.68376      .   S
    N12    O91       3.93743      .   S
    Zr89   O92       1.56965  1_554   S
    N0     O92       3.75031      .   S
    Zr89   O93       1.70982      .   S
    N8     O93       3.88771  1_556   S
    Zr89   O94       1.70548      .   S
    N9     O94       3.88337  1_556   S
    Zr89   O95       2.42468  1_554   S
    N15    O95       4.67218      .   S
    Zr89   O96       1.65142      .   S
    N9     O96       3.90762  1_556   S
    Zr89   O97       2.33745      .   S
    N21    O97       4.41612      .   S
    Zr89   O98       1.66459      .   S
    N8     O98       3.90571  1_556   S
    Zr89   O99       1.63567  1_554   S
    N0     O99       3.71711      .   S
    Zr89   O100      2.32582  1_554   S
    N4     O100      4.40128      .   S
    Zr89   O101      1.71705      .   S
    N12    O101      3.91711      .   S
    Zr102  O103      1.70224  1_565   S
    N16    O103      3.88429      .   S
    Zr102  O104      1.65702      .   S
    N20    O104      3.91634      .   S
    Zr102  O105      1.59786  1_565   S
    N15    O105      3.77635      .   S
    Zr102  O106      2.32016      .   S
    N13    O106      4.37976      .   S
    Zr102  O107      2.44435  1_565   S
    N0     O107      4.70216      .   S
    Zr102  O108      1.70515      .   S
    N17    O108      3.89186      .   S
    Zr102  O109      1.65111  1_565   S
    N16    O109      3.90645      .   S
    Zr102  O110      1.70732      .   S
    N20    O110      3.87982      .   S
    Zr102  O111      2.33620      .   S
    N11    O111      4.39625      .   S
    Zr102  O112      1.65779      .   S
    N17    O112      3.91152      .   S
    Zr102  O113      2.33524  1_565   S
    N2     O113      4.43576  1_655   S
    Zr102  O114      1.64743  1_565   S
    N15    O114      3.75777      .   S
    Zr115  O116      1.70975      .   S
    N6     O116      3.90110      .   S
    Zr115  O117      1.59656  1_545   S
    N22    O117      3.77277      .   S
    Zr115  O118      2.31886      .   S
    N0     O118      4.37619      .   S
    Zr115  O119      1.65511      .   S
    N4     O119      3.91073      .   S
    Zr115  O120      2.44170  1_545   S
    N13    O120      4.69580      .   S
    Zr115  O121      1.69695  1_545   S
    N7     O121      3.87336      .   S
    Zr115  O122      1.64407  1_545   S
    N7     O122      3.89534      .   S
    Zr115  O123      1.66380      .   S
    N6     O123      3.92191      .   S
    Zr115  O124      1.64551  1_545   S
    N22    O124      3.75491      .   S
    Zr115  O125      1.70454      .   S
    N4     O125      3.87423      .   S
    Zr115  O126      2.33745      .   S
    N2     O126      4.39993      .   S
    Zr115  O127      2.33488  1_545   S
    N11    O127      4.43139  1_455   S
