# CIF file generated by openbabel 2.4.90, see http://openbabel.sf.net
data_I
_chemical_name_common ''
_cell_length_a 10.143
_cell_length_b 12.816
_cell_length_c 12.826
_cell_angle_alpha 81.096
_cell_angle_beta 66.763
_cell_angle_gamma 66.789
_space_group_name_H-M_alt 'P 1'
_space_group_name_Hall 'P 1'
loop_
    _symmetry_equiv_pos_as_xyz
    x,y,z
loop_
    _atom_site_label
    _atom_site_type_symbol
    _atom_site_fract_x
    _atom_site_fract_y
    _atom_site_fract_z
    _atom_site_occupancy
    Cd0     Cd   0.88695   0.54892   0.67758   1.000
    Cd1     Cd   0.56383   0.32257   0.54904   1.000
    Cd2     Cd   0.43612   0.67741   0.45097   1.000
    H3      H    0.38470   0.25830   0.38184   1.000
    H4      H    0.47889   0.04970   0.41774   1.000
    H5      H    0.02679   0.74192   0.61503   1.000
    H6      H    0.94751   0.95063   0.57988   1.000
    H7      H    0.64243   0.38325   0.74199   1.000
    H8      H    0.52836   0.41852   0.95069   1.000
    H9      H    0.76801   0.61586   0.25814   1.000
    H10     H    0.89748   0.58019   0.04966   1.000
    H11     H    0.61524   0.74168   0.61818   1.000
    H12     H    0.52106   0.95028   0.58227   1.000
    H13     H    0.97315   0.25806   0.38500   1.000
    H14     H    0.05244   0.04935   0.42013   1.000
    H15     H    0.35751   0.61675   0.25802   1.000
    H16     H    0.47158   0.58145   0.04932   1.000
    H17     H    0.23194   0.38411   0.74187   1.000
    H18     H    0.10248   0.41976   0.95035   1.000
    C19     C    0.31570   0.20863   0.38912   1.000
    C20     C    0.36721   0.09256   0.40958   1.000
    C21     C    0.91468   0.79148   0.60919   1.000
    C22     C    0.87024   0.90759   0.58897   1.000
    C23     C    0.52410   0.38999   0.79156   1.000
    C24     C    0.45971   0.41024   0.90764   1.000
    C25     C    0.70570   0.60946   0.20854   1.000
    C26     C    0.77736   0.58909   0.09248   1.000
    C27     C    0.68426   0.79135   0.61089   1.000
    C28     C    0.63273   0.90742   0.59044   1.000
    C29     C    0.08528   0.20851   0.39082   1.000
    C30     C    0.12971   0.09239   0.41105   1.000
    C31     C    0.47585   0.60998   0.20845   1.000
    Cd32    Cd   0.11300   0.45106   0.32243   1.000
    C33     C    0.54023   0.58974   0.09237   1.000
    C34     C    0.29426   0.39050   0.79147   1.000
    C35     C    0.22259   0.41088   0.90753   1.000
    C36     C    0.27364   0.03250   0.41997   1.000
    C37     C    0.32735   0.90610   0.43899   1.000
    C38     C    0.72630   0.96748   0.58005   1.000
    C39     C    0.67260   0.09388   0.56102   1.000
    C40     C    0.30641   0.42025   0.96754   1.000
    C41     C    0.23391   0.43930   0.09387   1.000
    C42     C    0.69354   0.57973   0.03247   1.000
    C43     C    0.76604   0.56066   0.90614   1.000
    S44     S    0.75003   0.49993   0.50003   1.000
    S45     S    0.24993   0.50004   0.49998   1.000
    N46     N    0.17726   0.26593   0.37896   1.000
    N47     N    0.82270   0.73404   0.62104   1.000
    N48     N    0.44326   0.37927   0.73415   1.000
    N49     N    0.55669   0.62070   0.26586   1.000
    O50     O    0.45939   0.85510   0.44679   1.000
    O51     O    0.85522   0.55107   0.40887   1.000
    O52     O    0.76004   0.14553   0.55524   1.000
    O53     O    0.81499   0.44877   0.59127   1.000
    O54     O    0.31604   0.44420   0.14548   1.000
    O55     O    0.40604   0.40873   0.44885   1.000
    O56     O    0.90627   0.55200   0.85513   1.000
    O57     O    0.26399   0.59134   0.55121   1.000
    O58     O    0.54054   0.14488   0.55324   1.000
    O59     O    0.14474   0.44890   0.59113   1.000
    O60     O    0.23991   0.85445   0.44477   1.000
    O61     O    0.18497   0.55120   0.40873   1.000
    O62     O    0.68391   0.55578   0.85452   1.000
    O63     O    0.59392   0.59125   0.55115   1.000
    O64     O    0.09368   0.44797   0.14488   1.000
    O65     O    0.73596   0.40864   0.44880   1.000
loop_
    _geom_bond_atom_site_label_1
    _geom_bond_atom_site_label_2
    _geom_bond_distance
    _geom_bond_site_symmetry_2
    _ccdc_geom_bond_type
    C42    C33       1.39829      .   S
    C42    C26       1.39821      .   S
    C42    C43       1.50551  1_554   S
    H16    C33       1.08676      .   S
    H10    C26       1.08673      .   S
    C33    C31       1.38892      .   S
    C26    C25       1.38892      .   S
    C41    O64       1.27556      .   S
    C41    O54       1.27491      .   S
    C41    C40       1.50551  1_554   S
    O64    Cd32      2.36901      .   S
    O54    Cd32      2.37289      .   S
    C31    H15       1.08876      .   S
    C31    N49       1.35278      .   S
    C25    H9        1.08869      .   S
    C25    N49       1.35274      .   S
    N49    Cd2       2.28103      .   S
    Cd32   N46       2.28054      .   S
    Cd32   O61       2.28498      .   S
    Cd32   O51       2.28462  1_455   S
    N46    C19       1.35275      .   S
    N46    C29       1.35277      .   S
    H3     C19       1.08866      .   S
    H13    C29       1.08873  1_655   S
    C19    C20       1.38895      .   S
    C29    C30       1.38888      .   S
    O61    S45       1.50471      .   S
    O51    S44       1.50483      .   S
    C20    H4        1.08682      .   S
    C20    C36       1.39827      .   S
    C30    C36       1.39827      .   S
    C30    H14       1.08669      .   S
    C36    C37       1.50576  1_545   S
    C37    O60       1.27514      .   S
    C37    O50       1.27530      .   S
    O60    Cd2       2.37168      .   S
    O50    Cd2       2.37073      .   S
    O65    S44       1.50490      .   S
    O65    Cd1       2.28604      .   S
    O55    S45       1.50481      .   S
    O55    Cd1       2.28532      .   S
    Cd2    O63       2.28532      .   S
    Cd2    O57       2.28602      .   S
    S45    O57       1.50491      .   S
    S45    O59       1.50484      .   S
    S44    O63       1.50481      .   S
    S44    O53       1.50471      .   S
    Cd1    O58       2.37076      .   S
    Cd1    O52       2.37165      .   S
    Cd1    N48       2.28100      .   S
    O58    C39       1.27529      .   S
    O52    C39       1.27513      .   S
    C39    C38       1.50577  1_545   S
    H6     C22       1.08669      .   S
    C38    C22       1.39827      .   S
    C38    C28       1.39825      .   S
    H12    C28       1.08682      .   S
    C22    C21       1.38888      .   S
    C28    C27       1.38896      .   S
    O59    Cd0       2.28469  1_455   S
    O53    Cd0       2.28500      .   S
    C21    H5        1.08875  1_655   S
    C21    N47       1.35278      .   S
    C27    H11       1.08867      .   S
    C27    N47       1.35273      .   S
    N47    Cd0       2.28056      .   S
    Cd0    O62       2.37294      .   S
    Cd0    O56       2.36900      .   S
    N48    C34       1.35274      .   S
    N48    C23       1.35277      .   S
    H17    C34       1.08869      .   S
    H7     C23       1.08876      .   S
    C34    C35       1.38893      .   S
    C23    C24       1.38892      .   S
    O62    C43       1.27490      .   S
    O56    C43       1.27557      .   S
    C35    H18       1.08674      .   S
    C35    C40       1.39822      .   S
    C24    H8        1.08674      .   S
    C24    C40       1.39829      .   S
