# CIF file generated by openbabel 2.4.90, see http://openbabel.sf.net
data_I
_chemical_name_common 'VESTA_phase_1'
_cell_length_a 13.569
_cell_length_b 13.571
_cell_length_c 23.187
_cell_angle_alpha 90.029
_cell_angle_beta 89.966
_cell_angle_gamma 90.014
_space_group_name_H-M_alt 'P 1'
_space_group_name_Hall 'P 1'
loop_
    _symmetry_equiv_pos_as_xyz
    x,y,z
loop_
    _atom_site_label
    _atom_site_type_symbol
    _atom_site_fract_x
    _atom_site_fract_y
    _atom_site_fract_z
    _atom_site_occupancy
    Zn0     Zn   0.13762   0.19945   0.94274   1.000
    Zn1     Zn   0.86234   0.80046   0.44274   1.000
    Zn2     Zn   0.30052   0.63767   0.19272   1.000
    Zn3     Zn   0.69961   0.36237   0.69276   1.000
    Zn4     Zn   0.36235   0.69958   0.30725   1.000
    Zn5     Zn   0.63768   0.30054   0.80729   1.000
    Zn6     Zn   0.19945   0.13763   0.05728   1.000
    Zn7     Zn   0.80043   0.86235   0.55727   1.000
    H8      H    0.00561   0.33882   0.71341   1.000
    H9      H    0.22980   0.23844   0.83250   1.000
    H10     H    0.94025   0.25198   0.88744   1.000
    H11     H    0.32729   0.32211   0.78263   1.000
    H12     H    0.41743   0.32358   0.60608   1.000
    H13     H    0.24180   0.30067   0.57508   1.000
    H14     H    0.11032   0.28373   0.64794   1.000
    H15     H    0.99456   0.66115   0.21332   1.000
    H16     H    0.77015   0.76150   0.33259   1.000
    H17     H    0.05961   0.74791   0.38741   1.000
    H18     H    0.67275   0.67789   0.28257   1.000
    H19     H    0.58294   0.67646   0.10602   1.000
    H20     H    0.75863   0.69938   0.07503   1.000
    H21     H    0.88996   0.71630   0.14790   1.000
    H22     H    0.16085   0.50545   0.96344   1.000
    H23     H    0.26124   0.72985   0.08263   1.000
    H24     H    0.24799   0.44034   0.13739   1.000
    H25     H    0.17762   0.82723   0.03266   1.000
    H26     H    0.17634   0.91701   0.85612   1.000
    H27     H    0.19914   0.74134   0.82513   1.000
    H28     H    0.21595   0.61003   0.89000   1.000
    H29     H    0.83906   0.49443   0.46330   1.000
    H30     H    0.73894   0.27014   0.58266   1.000
    H31     H    0.75215   0.55973   0.63745   1.000
    H32     H    0.82243   0.17274   0.53264   1.000
    H33     H    0.82365   0.08260   0.35609   1.000
    H34     H    0.80089   0.25822   0.32510   1.000
    H35     H    0.78411   0.38968   0.39797   1.000
    H36     H    0.49439   0.83885   0.53667   1.000
    H37     H    0.27011   0.73866   0.41740   1.000
    H38     H    0.55970   0.75215   0.36256   1.000
    H39     H    0.17269   0.82223   0.46742   1.000
    H40     H    0.08252   0.82359   0.64397   1.000
    H41     H    0.25813   0.80069   0.67496   1.000
    H42     H    0.38961   0.78380   0.60200   1.000
    H43     H    0.50543   0.16112   0.03662   1.000
    H44     H    0.72985   0.26156   0.91743   1.000
    H45     H    0.44034   0.24802   0.86263   1.000
    H46     H    0.82723   0.17785   0.96740   1.000
    H47     H    0.91700   0.17645   0.14395   1.000
    H48     H    0.74132   0.19939   0.17494   1.000
    H49     H    0.61001   0.21632   0.10207   1.000
    H50     H    0.33910   0.00563   0.28650   1.000
    H51     H    0.23871   0.22982   0.16740   1.000
    H52     H    0.25201   0.94025   0.11258   1.000
    H53     H    0.32232   0.32729   0.21734   1.000
    H54     H    0.32364   0.41739   0.39390   1.000
    H55     H    0.30089   0.24175   0.42489   1.000
    H56     H    0.28407   0.11030   0.35203   1.000
    H57     H    0.66085   0.99456   0.78660   1.000
    H58     H    0.76116   0.77018   0.66739   1.000
    H59     H    0.74783   0.05965   0.61260   1.000
    H60     H    0.67763   0.67278   0.71741   1.000
    H61     H    0.67635   0.58296   0.89396   1.000
    H62     H    0.69910   0.75864   0.92494   1.000
    H63     H    0.71590   0.88998   0.85208   1.000
    C64     C    0.85247   0.31271   0.78518   1.000
    C65     C    0.96033   0.29620   0.79802   1.000
    C66     C    0.03074   0.31113   0.75496   1.000
    C67     C    0.13045   0.29098   0.76549   1.000
    C68     C    0.15453   0.25758   0.82091   1.000
    C69     C    0.99173   0.26403   0.85216   1.000
    C70     C    0.20802   0.30204   0.72114   1.000
    C71     C    0.30659   0.31570   0.73740   1.000
    C72     C    0.38166   0.32235   0.69642   1.000
    C73     C    0.35823   0.31788   0.63764   1.000
    C74     C    0.26038   0.30522   0.62075   1.000
    C75     C    0.18591   0.29661   0.66195   1.000
    C76     C    0.48684   0.33112   0.71600   1.000
    C77     C    0.14756   0.68726   0.28514   1.000
    C78     C    0.03967   0.70372   0.29797   1.000
    C79     C    0.96935   0.68882   0.25490   1.000
    C80     C    0.86963   0.70899   0.26544   1.000
    C81     C    0.84544   0.74235   0.32089   1.000
    C82     C    0.00819   0.73587   0.35213   1.000
    C83     C    0.79213   0.69795   0.22109   1.000
    C84     C    0.69352   0.68432   0.23740   1.000
    C85     C    0.61853   0.67770   0.19637   1.000
    C86     C    0.64207   0.68216   0.13758   1.000
    C87     C    0.73995   0.69481   0.12070   1.000
    C88     C    0.81435   0.70342   0.16190   1.000
    C89     C    0.51331   0.66892   0.21596   1.000
    C90     C    0.18717   0.35241   0.03516   1.000
    C91     C    0.20361   0.46029   0.04801   1.000
    C92     C    0.18858   0.53065   0.00498   1.000
    C93     C    0.20869   0.63038   0.01552   1.000
    C94     C    0.24215   0.65456   0.07093   1.000
    C95     C    0.23584   0.49176   0.10214   1.000
    C96     C    0.19766   0.70786   0.97119   1.000
    C97     C    0.18404   0.80645   0.98750   1.000
    C98     C    0.17747   0.88142   0.94646   1.000
    C99     C    0.18196   0.85788   0.88760   1.000
    C100    C    0.19457   0.76001   0.87080   1.000
    C101    C    0.20309   0.68563   0.91200   1.000
    C102    C    0.16883   0.98664   0.96604   1.000
    C103    C    0.81276   0.64755   0.53516   1.000
    C104    C    0.79641   0.53968   0.54802   1.000
    C105    C    0.81142   0.46927   0.50496   1.000
    C106    C    0.79137   0.36955   0.51551   1.000
    C107    C    0.75801   0.34543   0.57096   1.000
    C108    C    0.76428   0.50826   0.60218   1.000
    C109    C    0.80240   0.29200   0.47115   1.000
    C110    C    0.81600   0.19344   0.48747   1.000
    C111    C    0.82253   0.11838   0.44643   1.000
    C112    C    0.81805   0.14180   0.38765   1.000
    C113    C    0.80546   0.23963   0.37077   1.000
    C114    C    0.79696   0.31410   0.41197   1.000
    C115    C    0.83117   0.01320   0.46601   1.000
    C116    C    0.64754   0.81273   0.46485   1.000
    C117    C    0.53966   0.79627   0.45202   1.000
    C118    C    0.46923   0.81119   0.49509   1.000
    C119    C    0.36950   0.79114   0.48450   1.000
    C120    C    0.34540   0.75775   0.42910   1.000
    C121    C    0.50823   0.76418   0.39785   1.000
    C122    C    0.29193   0.80212   0.52891   1.000
    C123    C    0.19337   0.81581   0.51259   1.000
    C124    C    0.11830   0.82241   0.55362   1.000
    C125    C    0.14172   0.81793   0.61241   1.000
    C126    C    0.23955   0.80525   0.62929   1.000
    C127    C    0.31403   0.79670   0.58800   1.000
    C128    C    0.01312   0.83113   0.53404   1.000
    C129    C    0.35240   0.18723   0.96486   1.000
    C130    C    0.46028   0.20376   0.95203   1.000
    C131    C    0.53063   0.18883   0.99508   1.000
    C132    C    0.63037   0.20899   0.98455   1.000
    C133    C    0.65455   0.24241   0.92912   1.000
    C134    C    0.49177   0.23596   0.89789   1.000
    C135    C    0.70785   0.19798   0.02888   1.000
    C136    C    0.80645   0.18427   0.01257   1.000
    C137    C    0.88143   0.17763   0.05360   1.000
    C138    C    0.85788   0.18212   0.11239   1.000
    C139    C    0.76001   0.19484   0.12927   1.000
    C140    C    0.68562   0.20340   0.08807   1.000
    C141    C    0.98665   0.16890   0.03401   1.000
    C142    C    0.31279   0.85247   0.21482   1.000
    C143    C    0.29635   0.96033   0.20198   1.000
    C144    C    0.31136   0.03076   0.24502   1.000
    C145    C    0.29128   0.13046   0.23448   1.000
    C146    C    0.25781   0.15455   0.17907   1.000
    C147    C    0.26412   0.99172   0.14785   1.000
    C148    C    0.30232   0.20802   0.27880   1.000
    C149    C    0.31592   0.30659   0.26252   1.000
    C150    C    0.32246   0.38164   0.30355   1.000
    C151    C    0.31802   0.35820   0.36234   1.000
    C152    C    0.30544   0.26035   0.37920   1.000
    C153    C    0.29690   0.18589   0.33800   1.000
    C154    C    0.33117   0.48682   0.28398   1.000
    C155    C    0.68718   0.14758   0.71486   1.000
    C156    C    0.70354   0.03970   0.70202   1.000
    C157    C    0.68854   0.96936   0.74508   1.000
    C158    C    0.70864   0.86964   0.73450   1.000
    C159    C    0.74205   0.84546   0.67909   1.000
    C160    C    0.73571   0.00822   0.64786   1.000
    C161    C    0.69764   0.79215   0.77889   1.000
    C162    C    0.68404   0.69356   0.76258   1.000
    C163    C    0.67751   0.61856   0.80361   1.000
    C164    C    0.68196   0.64209   0.86240   1.000
    C165    C    0.69455   0.73997   0.87928   1.000
    C166    C    0.70306   0.81437   0.83808   1.000
    C167    C    0.66889   0.51335   0.78403   1.000
    N168    N    0.08759   0.24602   0.86325   1.000
    N169    N    0.91231   0.75387   0.36323   1.000
    N170    N    0.25380   0.58768   0.11324   1.000
    N171    N    0.74638   0.41235   0.61329   1.000
    N172    N    0.41232   0.74625   0.38674   1.000
    N173    N    0.58768   0.25397   0.88600   1.000
    N174    N    0.24619   0.08761   0.13675   1.000
    N175    N    0.75365   0.91232   0.63676   1.000
    O176    O    0.79087   0.28276   0.82258   1.000
    O177    O    0.83325   0.35359   0.73724   1.000
    O178    O    0.50245   0.32534   0.77010   1.000
    O179    O    0.55202   0.34191   0.67710   1.000
    O180    O    0.20909   0.71725   0.32254   1.000
    O181    O    0.16685   0.64634   0.23718   1.000
    O182    O    0.49763   0.67477   0.27008   1.000
    O183    O    0.44819   0.65813   0.17707   1.000
    O184    O    0.21717   0.29089   0.07254   1.000
    O185    O    0.14630   0.33313   0.98723   1.000
    O186    O    0.17465   0.00232   0.02015   1.000
    O187    O    0.15807   0.05174   0.92715   1.000
    O188    O    0.78274   0.70910   0.57250   1.000
    O189    O    0.85360   0.66681   0.48718   1.000
    O190    O    0.82529   0.99760   0.52013   1.000
    O191    O    0.84193   0.94805   0.42711   1.000
    O192    O    0.70911   0.78273   0.42744   1.000
    O193    O    0.66679   0.85356   0.51283   1.000
    O194    O    0.99755   0.82532   0.47992   1.000
    O195    O    0.94798   0.84195   0.57294   1.000
    O196    O    0.29086   0.21719   0.92747   1.000
    O197    O    0.33312   0.14635   0.01279   1.000
    O198    O    0.00229   0.17466   0.97990   1.000
    O199    O    0.05173   0.15808   0.07289   1.000
    O200    O    0.28278   0.79089   0.17740   1.000
    O201    O    0.35363   0.83323   0.26277   1.000
    O202    O    0.32533   0.50245   0.22980   1.000
    O203    O    0.34190   0.55198   0.32289   1.000
    O204    O    0.71723   0.20909   0.67747   1.000
    O205    O    0.64630   0.16687   0.76283   1.000
    O206    O    0.67477   0.49768   0.72990   1.000
    O207    O    0.65812   0.44823   0.82290   1.000
loop_
    _geom_bond_atom_site_label_1
    _geom_bond_atom_site_label_2
    _geom_bond_distance
    _geom_bond_site_symmetry_2
    _ccdc_geom_bond_type
    C92    C93       1.40192      .   S
    C92    C91       1.39649      .   S
    C92    H22       1.08914  1_554   S
    C136   C135      1.40244      .   S
    C136   C137      1.39631      .   S
    C136   H46       1.08795  1_554   S
    O197   Zn6       2.08940      .   S
    O197   C129      1.26948  1_554   S
    C93    C94       1.40164      .   S
    C93    C96       1.47847  1_554   S
    O186   Zn6       2.05544      .   S
    O186   C102      1.27495  1_544   S
    C135   C140      1.40692      .   S
    C135   C132      1.47847  1_554   S
    H25    C97       1.08776  1_554   S
    C141   C137      1.50271      .   S
    C141   O199      1.27091  1_655   S
    C141   O198      1.27477  1_654   S
    C90    C91       1.51043      .   S
    C90    O184      1.27094      .   S
    C90    O185      1.26945  1_554   S
    H43    C131      1.08904  1_554   S
    C91    C95       1.39609      .   S
    C137   C138      1.40124      .   S
    Zn6    O184      2.12325      .   S
    Zn6    O199      2.05551      .   S
    Zn6    N174      2.06423      .   S
    C94    H23       1.08835      .   S
    C94    N170      1.34627      .   S
    H20    C87       1.09049      .   S
    C140   H49       1.09008      .   S
    C140   C139      1.39506      .   S
    C95    N170      1.34887      .   S
    C95    H24       1.08771      .   S
    H19    C86       1.08899      .   S
    C138   C139      1.39503      .   S
    C138   H47       1.08897      .   S
    H52    C147      1.08778      .   S
    N170   Zn2       2.06357      .   S
    C87    C86       1.39501      .   S
    C87    C88       1.39506      .   S
    C139   H48       1.09045      .   S
    N174   C147      1.34889  1_545   S
    N174   C146      1.34614      .   S
    C86    C85       1.40124      .   S
    C147   C143      1.39617      .   S
    H21    C88       1.09009      .   S
    C88    C83       1.40696      .   S
    H51    C146      1.08829      .   S
    O183   Zn2       2.05501      .   S
    O183   C89       1.27125      .   S
    O200   Zn2       2.12342      .   S
    O200   C142      1.27144      .   S
    C146   C145      1.40175      .   S
    Zn2    O202      2.05477      .   S
    Zn2    O181      2.08906      .   S
    C85    C89       1.50269      .   S
    C85    C84       1.39631      .   S
    C143   C142      1.51059      .   S
    C143   C144      1.39645  1_565   S
    H15    C79       1.08939      .   S
    C142   O201      1.26986      .   S
    C89    O182      1.27510      .   S
    H53    C149      1.08818      .   S
    C83    C84       1.40248      .   S
    C83    C80       1.47875      .   S
    O202   C154      1.27667      .   S
    C145   C144      1.40194      .   S
    C145   C148      1.47825      .   S
    O181   C77       1.26995      .   S
    C84    H18       1.08802      .   S
    C144   H50       1.08801      .   S
    C79    C80       1.40193      .   S
    C79    C78       1.39623  1_655   S
    C149   C148      1.40226      .   S
    C149   C150      1.39625      .   S
    O201   Zn4       2.09040      .   S
    C80    C81       1.40170      .   S
    O182   Zn4       2.05520      .   S
    C148   C153      1.40714      .   S
    C154   C150      1.50264      .   S
    C154   O203      1.27134      .   S
    C77    C78       1.51030      .   S
    C77    O180      1.27081      .   S
    C78    C82       1.39599      .   S
    C150   C151      1.40121      .   S
    Zn4    O180      2.12306      .   S
    Zn4    O203      2.05454      .   S
    Zn4    N172      2.06353      .   S
    C81    H16       1.08834      .   S
    C81    N169      1.34623      .   S
    H34    C113      1.09050      .   S
    C153   H56       1.09028      .   S
    C153   C152      1.39506      .   S
    C82    N169      1.34841  1_455   S
    C82    H17       1.08774      .   S
    H33    C112      1.08903      .   S
    C151   C152      1.39483      .   S
    C151   H54       1.08901      .   S
    H38    C121      1.08772      .   S
    N169   Zn1       2.06296      .   S
    C113   C112      1.39499      .   S
    C113   C114      1.39506      .   S
    C152   H55       1.09090      .   S
    N172   C121      1.34892      .   S
    N172   C120      1.34630      .   S
    C112   C111      1.40102      .   S
    C121   C117      1.39611      .   S
    H35    C114      1.09009      .   S
    C114   C109      1.40675      .   S
    H37    C120      1.08835      .   S
    O191   Zn1       2.05449      .   S
    O191   C115      1.27117  1_565   S
    O192   Zn1       2.12303      .   S
    O192   C116      1.27086      .   S
    C120   C119      1.40080      .   S
    Zn1    O194      2.05535      .   S
    Zn1    O189      2.08973      .   S
    C111   C115      1.50263      .   S
    C111   C110      1.39640      .   S
    C117   C116      1.51044      .   S
    C117   C118      1.39648      .   S
    H29    C105      1.09095      .   S
    C116   O193      1.26988      .   S
    C115   O190      1.27518  1_545   S
    H39    C123      1.08802      .   S
    C109   C110      1.40252      .   S
    C109   C106      1.47882      .   S
    O194   C128      1.27508  1_655   S
    C119   C118      1.40206      .   S
    C119   C122      1.47953      .   S
    O189   C103      1.26989      .   S
    C110   H32       1.08805      .   S
    C118   H36       1.08941      .   S
    C105   C106      1.40190      .   S
    C105   C104      1.39650      .   S
    C123   C122      1.40251      .   S
    C123   C124      1.39630      .   S
    O193   Zn7       2.08949      .   S
    C106   C107      1.40174      .   S
    O190   Zn7       2.05556      .   S
    C122   C127      1.40469      .   S
    C128   C124      1.50259      .   S
    C128   O195      1.27097  1_455   S
    C103   C104      1.51044      .   S
    C103   O188      1.26978      .   S
    C104   C108      1.39599      .   S
    C124   C125      1.40124      .   S
    Zn7    O188      2.12312      .   S
    Zn7    O195      2.05392      .   S
    Zn7    N175      2.06337      .   S
    C107   H30       1.08831      .   S
    C107   N171      1.34615      .   S
    H13    C74       1.09044      .   S
    C127   H42       1.09010      .   S
    C127   C126      1.39651      .   S
    C108   N171      1.34892      .   S
    C108   H31       1.08767      .   S
    H12    C73       1.08900      .   S
    C125   C126      1.39498      .   S
    C125   H40       1.08899      .   S
    H59    C160      1.08760      .   S
    N171   Zn3       2.06353      .   S
    C74    C73       1.39502      .   S
    C74    C75       1.39508      .   S
    C126   H41       1.09048      .   S
    N175   C160      1.34873  1_565   S
    N175   C159      1.34616      .   S
    C73    C72       1.40098      .   S
    C160   C156      1.39607      .   S
    H14    C75       1.09013      .   S
    C75    C70       1.40689      .   S
    H58    C159      1.08831      .   S
    O179   Zn3       2.05426      .   S
    O179   C76       1.27129      .   S
    O204   Zn3       2.12348      .   S
    O204   C155      1.27081      .   S
    C159   C158      1.40103      .   S
    Zn3    O206      2.05560      .   S
    Zn3    O177      2.09018      .   S
    C72    C76       1.50265      .   S
    C72    C71       1.39551      .   S
    C156   C155      1.51026      .   S
    C156   C157      1.39649  1_545   S
    H8     C66       1.08923      .   S
    C155   O205      1.26984      .   S
    C76    O178      1.27475      .   S
    H60    C162      1.08802      .   S
    C70    C71       1.40212      .   S
    C70    C67       1.47878      .   S
    O206   C167      1.27536      .   S
    C158   C157      1.40203      .   S
    C158   C161      1.47930      .   S
    O177   C64       1.26982      .   S
    C71    H11       1.08929      .   S
    C157   H57       1.08823      .   S
    C66    C67       1.40192      .   S
    C66    C65       1.39625  1_455   S
    C162   C161      1.40248      .   S
    C162   C163      1.39628      .   S
    O205   Zn5       2.08932      .   S
    C67    C68       1.40172      .   S
    O178   Zn5       2.05575      .   S
    C161   C166      1.40698      .   S
    C167   C163      1.50263      .   S
    C167   O207      1.27092      .   S
    C64    C65       1.51056      .   S
    C64    O176      1.27092      .   S
    C65    C69       1.39617      .   S
    C163   C164      1.40125      .   S
    Zn5    O176      2.12267      .   S
    Zn5    O207      2.05526      .   S
    Zn5    N173      2.04692      .   S
    C68    H9        1.08783      .   S
    C68    N168      1.34626      .   S
    H27    C100      1.09046      .   S
    C166   H63       1.09009      .   S
    C166   C165      1.39506      .   S
    C69    N168      1.34853  1_655   S
    C69    H10       1.08777      .   S
    H26    C99       1.08776      .   S
    C164   C165      1.39502      .   S
    C164   H61       1.08900      .   S
    H45    C134      1.08766      .   S
    N168   Zn0       2.06403      .   S
    C100   C99       1.39449      .   S
    C100   C101      1.39503      .   S
    C165   H62       1.09027      .   S
    N173   C134      1.35247      .   S
    N173   C133      1.35970      .   S
    C99    C98       1.40281      .   S
    H28    C101      1.15884      .   S
    C134   C130      1.39615      .   S
    C101   C96       1.40693      .   S
    H44    C133      1.08832      .   S
    O187   Zn0       2.05562      .   S
    O187   C102      1.27119  1_545   S
    O196   Zn0       2.12276      .   S
    O196   C129      1.27098      .   S
    C133   C132      1.40191      .   S
    Zn0    O198      2.05561      .   S
    Zn0    O185      2.08981      .   S
    C98    C102      1.50271      .   S
    C98    C97       1.39639      .   S
    C130   C129      1.51031      .   S
    C130   C131      1.39653      .   S
    C96    C97       1.40247      .   S
    C132   C131      1.40190      .   S
    Zn0    Zn6       2.90976  1_556   S
    Zn1    Zn7       2.90840      .   S
    Zn2    Zn4       2.90898      .   S
    Zn3    Zn5       2.90888      .   S
