# CIF file generated by openbabel 2.4.90, see http://openbabel.sf.net
data_I
_chemical_name_common ''
_cell_length_a 7.3135
_cell_length_b 19.286
_cell_length_c 21.745
_cell_angle_alpha 90.005
_cell_angle_beta 90.014
_cell_angle_gamma 91.651
_space_group_name_H-M_alt 'P 1'
_space_group_name_Hall 'P 1'
loop_
    _symmetry_equiv_pos_as_xyz
    x,y,z
loop_
    _atom_site_label
    _atom_site_type_symbol
    _atom_site_fract_x
    _atom_site_fract_y
    _atom_site_fract_z
    _atom_site_occupancy
    Lv0     Lv   0.43652   0.74380   0.53041   1.000
    Lv1     Lv   0.50324   0.49976   0.50066   1.000
    Lv2     Lv   0.99998   0.99998   0.00009   1.000
    Lv3     Lv   0.00003   0.49995   0.00003   1.000
    Lv4     Lv   0.86300   0.52171   0.66849   1.000
    Lv5     Lv   0.36262   0.52170   0.83244   1.000
    Lv6     Lv   0.56422   0.25606   0.46981   1.000
    Lv7     Lv   0.63702   0.47810   0.16763   1.000
    Lv8     Lv   0.93652   0.74439   0.97056   1.000
    Lv9     Lv   0.50002   0.99980   0.50003   1.000
    Lv10    Lv   0.39120   0.97155   0.83540   1.000
    Lv11    Lv   0.06349   0.25547   0.02913   1.000
    Lv12    Lv   0.89074   0.97147   0.66496   1.000
    Lv13    Lv   0.13679   0.47840   0.33210   1.000
    Lv14    Lv   0.60842   0.02842   0.16485   1.000
    Lv15    Lv   0.10900   0.02846   0.33587   1.000
