# CIF file generated by openbabel 2.4.90, see http://openbabel.sf.net
data_I
_chemical_name_common ''
_cell_length_a 7.3135
_cell_length_b 19.286
_cell_length_c 21.745
_cell_angle_alpha 90.005
_cell_angle_beta 90.014
_cell_angle_gamma 91.651
_space_group_name_H-M_alt 'P 1'
_space_group_name_Hall 'P 1'
loop_
    _symmetry_equiv_pos_as_xyz
    x,y,z
loop_
    _atom_site_label
    _atom_site_type_symbol
    _atom_site_fract_x
    _atom_site_fract_y
    _atom_site_fract_z
    _atom_site_occupancy
    K0      K    0.39925   0.60825   0.66547   1.000
    K1      K    0.53246   0.74736   0.76906   1.000
    K2      K    0.08301   0.11451   0.16546   1.000
    K3      K    0.10157   0.39149   0.16459   1.000
    K4      K    0.96766   0.25277   0.26834   1.000
    K5      K    0.58359   0.11499   0.33512   1.000
    K6      K    0.60097   0.39180   0.33488   1.000
    K7      K    0.46744   0.25259   0.23149   1.000
    K8      K    0.91768   0.88524   0.83545   1.000
    K9      K    0.89917   0.60847   0.83565   1.000
    K10     K    0.03248   0.74729   0.73176   1.000
    K11     K    0.41699   0.88499   0.66525   1.000
