# CIF file generated by openbabel 2.4.90, see http://openbabel.sf.net
data_I
_chemical_name_common ''
_cell_length_a 8.75381
_cell_length_b 9.01039
_cell_length_c 14.899
_cell_angle_alpha 90.0054
_cell_angle_beta 90.0205
_cell_angle_gamma 90.0046
_space_group_name_H-M_alt 'P 1'
_space_group_name_Hall 'P 1'
loop_
    _symmetry_equiv_pos_as_xyz
    x,y,z
loop_
    _atom_site_label
    _atom_site_type_symbol
    _atom_site_fract_x
    _atom_site_fract_y
    _atom_site_fract_z
    _atom_site_occupancy
    C0      C    0.24909   0.33415   0.63970   1.000
    C1      C    0.16068   0.84980   0.79942   1.000
    C2      C    0.33906   0.85057   0.47967   1.000
    C3      C    0.25067   0.83405   0.13970   1.000
    C4      C    0.33903   0.34973   0.29943   1.000
    C5      C    0.16089   0.35047   0.97960   1.000
    C6      C    0.74888   0.66679   0.63989   1.000
    C7      C    0.83880   0.15037   0.79991   1.000
    C8      C    0.66069   0.15112   0.48005   1.000
    C9      C    0.75072   0.16672   0.13979   1.000
    C10     C    0.66078   0.65030   0.29983   1.000
    C11     C    0.83917   0.65108   0.98012   1.000
