# CIF file generated by openbabel 2.4.90, see http://openbabel.sf.net
data_I
_chemical_name_common ''
_cell_length_a 12.575
_cell_length_b 12.867
_cell_length_c 14.514
_cell_angle_alpha 88.632
_cell_angle_beta 88.664
_cell_angle_gamma 86.105
_space_group_name_H-M_alt 'P 1'
_space_group_name_Hall 'P 1'
loop_
    _symmetry_equiv_pos_as_xyz
    x,y,z
loop_
    _atom_site_label
    _atom_site_type_symbol
    _atom_site_fract_x
    _atom_site_fract_y
    _atom_site_fract_z
    _atom_site_occupancy
    Zn0     Zn   0.62567   0.03152   0.72606   1.000
    Zn1     Zn   0.02767   0.63127   0.22307   1.000
    Zn2     Zn   0.37426   0.96851   0.27379   1.000
    Zn3     Zn   0.38885   0.61374   0.74987   1.000
    Zn4     Zn   0.61134   0.38649   0.25015   1.000
    Zn5     Zn   0.97219   0.36890   0.77442   1.000
