# CIF file generated by openbabel 2.4.90, see http://openbabel.sf.net
data_I
_chemical_name_common ''
_cell_length_a 12.575
_cell_length_b 12.867
_cell_length_c 14.514
_cell_angle_alpha 88.632
_cell_angle_beta 88.664
_cell_angle_gamma 86.105
_space_group_name_H-M_alt 'P 1'
_space_group_name_Hall 'P 1'
loop_
    _symmetry_equiv_pos_as_xyz
    x,y,z
loop_
    _atom_site_label
    _atom_site_type_symbol
    _atom_site_fract_x
    _atom_site_fract_y
    _atom_site_fract_z
    _atom_site_occupancy
    Zr0     Zr   0.97219   0.36890   0.77442   1.000
    Zr1     Zr   0.62567   0.03152   0.72606   1.000
    Zr2     Zr   0.02767   0.63127   0.22307   1.000
    Zr3     Zr   0.37426   0.96851   0.27379   1.000
    Zr4     Zr   0.38885   0.61374   0.74987   1.000
    Zr5     Zr   0.61134   0.38649   0.25015   1.000
    N6      N    0.14248   0.53562   0.79694   1.000
    O7      O    0.09767   0.57746   0.97540   1.000
    N8      N    0.75835   0.24317   0.74996   1.000
    O9      O    0.60343   0.39797   0.74989   1.000
    N10     N    0.53323   0.14339   0.29844   1.000
    O11     O    0.57368   0.09978   0.47752   1.000
    N12     N    0.46552   0.85763   0.70155   1.000
    O13     O    0.42568   0.90074   0.52235   1.000
    N14     N    0.24298   0.75831   0.25036   1.000
    O15     O    0.39739   0.60296   0.25039   1.000
    N16     N    0.85852   0.46379   0.20190   1.000
    O17     O    0.90270   0.42255   0.02293   1.000
    O18     O    0.92919   0.53066   0.23390   1.000
    O19     O    0.13695   0.72456   0.23862   1.000
    O20     O    0.75554   0.43484   0.24387   1.000
    O21     O    0.72306   0.13890   0.73946   1.000
    O22     O    0.52955   0.92956   0.73455   1.000
    O23     O    0.43747   0.75583   0.74355   1.000
    O24     O    0.24527   0.56481   0.75540   1.000
    O25     O    0.56180   0.24494   0.25647   1.000
    O26     O    0.46962   0.07117   0.26534   1.000
    O27     O    0.27755   0.86183   0.26074   1.000
    O28     O    0.86365   0.27624   0.76073   1.000
    O29     O    0.07153   0.46898   0.76456   1.000
loop_
    _geom_bond_atom_site_label_1
    _geom_bond_atom_site_label_2
    _geom_bond_distance
    _geom_bond_site_symmetry_2
    _ccdc_geom_bond_type
    N6     O7        2.69693      .   S
    Zr2    O7        3.75028  1_554   S
    N8     O9        2.68980      .   S
    Zr4    O9        3.73780      .   S
    N10    O11       2.69853      .   S
    Zr1    O11       3.75394      .   S
    N12    O13       2.69757      .   S
    Zr3    O13       3.75182      .   S
    N14    O15       2.69046      .   S
    Zr5    O15       3.73882      .   S
    N16    O17       2.70121      .   S
    Zr0    O17       3.76020  1_556   S
    Zr2    O18       1.85288  1_455   S
    N16    O18       1.37406      .   S
    Zr2    O19       1.90566      .   S
    N14    O19       1.44506      .   S
    N16    O20       1.48487      .   S
    Zr5    O20       1.95604      .   S
    Zr1    O21       1.92364      .   S
    N8     O21       1.45401      .   S
    Zr1    O22       1.84336  1_545   S
    N12    O22       1.36926      .   S
    Zr4    O23       1.96620      .   S
    N12    O23       1.49212      .   S
    Zr4    O24       1.95150      .   S
    N6     O24       1.48117      .   S
    Zr5    O25       1.96399      .   S
    N10    O25       1.49094      .   S
    Zr3    O26       1.84347  1_565   S
    N10    O26       1.36909      .   S
    Zr3    O27       1.91024      .   S
    N14    O27       1.44118      .   S
    Zr0    O28       1.88916      .   S
    N8     O28       1.43121      .   S
    Zr0    O29       1.85489  1_655   S
    N6     O29       1.37655      .   S
