# CIF file generated by openbabel 2.4.90, see http://openbabel.sf.net
data_I
_chemical_name_common ''
_cell_length_a 18.28
_cell_length_b 14.29
_cell_length_c 15.324
_cell_angle_alpha 89.443
_cell_angle_beta 90.195
_cell_angle_gamma 107.341
_space_group_name_H-M_alt 'P 1'
_space_group_name_Hall 'P 1'
loop_
    _symmetry_equiv_pos_as_xyz
    x,y,z
loop_
    _atom_site_label
    _atom_site_type_symbol
    _atom_site_fract_x
    _atom_site_fract_y
    _atom_site_fract_z
    _atom_site_occupancy
    H0      H    0.43546   0.40457   0.29640   1.000
    H1      H    0.93546   0.40457   0.29641   1.000
    H2      H    0.36805   0.09075   0.27909   1.000
    H3      H    0.86805   0.09075   0.27908   1.000
    H4      H    0.23140   0.08743   0.26953   1.000
    H5      H    0.73140   0.08743   0.26953   1.000
    H6      H    0.12500   0.40456   0.53351   1.000
    H7      H    0.62498   0.40454   0.53351   1.000
    H8      H    0.31463   0.09406   0.79668   1.000
    H9      H    0.81463   0.09406   0.79669   1.000
    H10     H    0.38183   0.40818   0.77854   1.000
    H11     H    0.88184   0.40818   0.77854   1.000
    H12     H    0.01845   0.41179   0.76890   1.000
    H13     H    0.51845   0.41179   0.76890   1.000
    H14     H    0.12350   0.09391   0.03673   1.000
    H15     H    0.62354   0.09395   0.03673   1.000
    H16     H    0.06453   0.59544   0.70360   1.000
    H17     H    0.56453   0.59544   0.70360   1.000
    H18     H    0.13194   0.90926   0.72092   1.000
    H19     H    0.63194   0.90926   0.72092   1.000
    H20     H    0.26859   0.91258   0.73048   1.000
    H21     H    0.76859   0.91258   0.73048   1.000
    H22     H    0.37498   0.59544   0.46651   1.000
    H23     H    0.87498   0.59543   0.46651   1.000
    H24     H    0.18535   0.90595   0.20333   1.000
    H25     H    0.68535   0.90595   0.20333   1.000
    H26     H    0.11815   0.59182   0.22140   1.000
    H27     H    0.61815   0.59182   0.22146   1.000
    H28     H    0.48153   0.58822   0.23110   1.000
    H29     H    0.98154   0.58822   0.23111   1.000
    H30     H    0.37642   0.90602   0.96328   1.000
    H31     H    0.87640   0.90600   0.96328   1.000
    C32     C    0.25534   0.24384   0.27804   1.000
    C33     C    0.75534   0.24384   0.27804   1.000
    C34     C    0.31420   0.33546   0.28492   1.000
    C35     C    0.81420   0.33546   0.28492   1.000
    C36     C    0.39071   0.33499   0.29085   1.000
    C37     C    0.89071   0.33499   0.29084   1.000
    C38     C    0.41087   0.24832   0.28976   1.000
    C39     C    0.91087   0.24832   0.28976   1.000
    C40     C    0.35255   0.15865   0.28050   1.000
    C41     C    0.85255   0.15865   0.28049   1.000
    C42     C    0.27666   0.15675   0.27480   1.000
    C43     C    0.77666   0.15675   0.27480   1.000
    C44     C    0.30005   0.43243   0.28512   1.000
    C45     C    0.80005   0.43243   0.28512   1.000
    C46     C    0.49183   0.25006   0.29751   1.000
    C47     C    0.99183   0.25006   0.29751   1.000
    C48     C    0.15400   0.34648   0.53476   1.000
    C49     C    0.65400   0.34647   0.53476   1.000
    C50     C    0.99469   0.25524   0.77777   1.000
    C51     C    0.49470   0.25524   0.77777   1.000
    C52     C    0.43585   0.16346   0.78487   1.000
    C53     C    0.93586   0.16346   0.78487   1.000
    C54     C    0.35934   0.16378   0.79093   1.000
    C55     C    0.85934   0.16378   0.79093   1.000
    C56     C    0.33907   0.25041   0.78957   1.000
    C57     C    0.83907   0.25041   0.78957   1.000
    C58     C    0.39736   0.34026   0.78012   1.000
    C59     C    0.89736   0.34026   0.78012   1.000
    C60     C    0.47325   0.34231   0.77431   1.000
    C61     C    0.97325   0.34231   0.77431   1.000
    C62     C    0.45003   0.06646   0.78519   1.000
    C63     C    0.95003   0.06646   0.78519   1.000
    C64     C    0.25809   0.24851   0.79742   1.000
    C65     C    0.75809   0.24851   0.79742   1.000
    C66     C    0.09554   0.15304   0.03548   1.000
    C67     C    0.59556   0.15305   0.03548   1.000
    C68     C    0.24465   0.75616   0.72197   1.000
    C69     C    0.74465   0.75616   0.72197   1.000
    C70     C    0.18579   0.66455   0.71509   1.000
    C71     C    0.68579   0.66455   0.71509   1.000
    C72     C    0.10929   0.66502   0.70910   1.000
    C73     C    0.60929   0.66502   0.70916   1.000
    C74     C    0.08912   0.75169   0.71025   1.000
    C75     C    0.58912   0.75169   0.71025   1.000
    C76     C    0.14744   0.84135   0.71951   1.000
    C77     C    0.64744   0.84135   0.71951   1.000
    C78     C    0.22333   0.84325   0.72520   1.000
    C79     C    0.72333   0.84325   0.72521   1.000
    C80     C    0.19994   0.56758   0.71489   1.000
    C81     C    0.69994   0.56758   0.71489   1.000
    C82     C    0.00816   0.74995   0.70250   1.000
    C83     C    0.50816   0.74995   0.70250   1.000
    C84     C    0.34598   0.65352   0.46525   1.000
    C85     C    0.84598   0.65352   0.46525   1.000
    C86     C    0.50529   0.74477   0.22220   1.000
    C87     C    0.00000   0.74477   0.22224   1.000
    C88     C    0.06413   0.83655   0.21514   1.000
    C89     C    0.56413   0.83655   0.21515   1.000
    C90     C    0.14065   0.83622   0.20908   1.000
    C91     C    0.64065   0.83622   0.20907   1.000
    C92     C    0.16092   0.74959   0.21044   1.000
    C93     C    0.66092   0.74959   0.21044   1.000
    C94     C    0.10262   0.65974   0.21988   1.000
    C95     C    0.60262   0.65974   0.21988   1.000
    C96     C    0.02674   0.65769   0.22570   1.000
    C97     C    0.52674   0.65769   0.22571   1.000
    C98     C    0.04996   0.93355   0.21483   1.000
    C99     C    0.54996   0.93355   0.21483   1.000
    C100    C    0.24189   0.75149   0.20260   1.000
    C101    C    0.74190   0.75149   0.20260   1.000
    C102    C    0.40442   0.84695   0.96450   1.000
    C103    C    0.90442   0.84694   0.96453   1.000
    O104    O    0.18094   0.23859   0.27410   1.000
    O105    O    0.68094   0.23859   0.27410   1.000
    O106    O    0.23539   0.44535   0.30353   1.000
    O107    O    0.73539   0.44535   0.30353   1.000
    O108    O    0.35752   0.50738   0.26663   1.000
    O109    O    0.85752   0.50738   0.26662   1.000
    O110    O    0.04228   0.33354   0.31109   1.000
    O111    O    0.54228   0.33354   0.31109   1.000
    O112    O    0.50721   0.16868   0.29188   1.000
    O113    O    0.00000   0.16868   0.29188   1.000
    O114    O    0.16538   0.30888   0.46342   1.000
    O115    O    0.66539   0.30888   0.46342   1.000
    O116    O    0.17483   0.32000   0.60744   1.000
    O117    O    0.67483   0.32000   0.60744   1.000
    O118    O    0.06910   0.26069   0.77366   1.000
    O119    O    0.56911   0.26069   0.77366   1.000
    O120    O    0.01470   0.05320   0.80370   1.000
    O121    O    0.51470   0.05320   0.80370   1.000
    O122    O    0.39258   0.99188   0.76665   1.000
    O123    O    0.89258   0.99188   0.76665   1.000
    O124    O    0.20769   0.16477   0.81129   1.000
    O125    O    0.70769   0.16478   0.81129   1.000
    O126    O    0.24265   0.32996   0.79166   1.000
    O127    O    0.74265   0.32996   0.79166   1.000
    O128    O    0.08448   0.18937   0.96271   1.000
    O129    O    0.58448   0.18937   0.96271   1.000
    O130    O    0.07553   0.18190   0.10693   1.000
    O131    O    0.57553   0.18190   0.10693   1.000
    O132    O    0.31905   0.76141   0.72591   1.000
    O133    O    0.81905   0.76141   0.72591   1.000
    O134    O    0.26460   0.55466   0.69648   1.000
    O135    O    0.76460   0.55466   0.69648   1.000
    O136    O    0.14247   0.49262   0.73339   1.000
    O137    O    0.64247   0.49262   0.73339   1.000
    O138    O    0.45771   0.66647   0.68893   1.000
    O139    O    0.95771   0.66647   0.68893   1.000
    O140    O    0.99278   0.83132   0.70814   1.000
    O141    O    0.49278   0.83132   0.70810   1.000
    O142    O    0.33461   0.69113   0.53659   1.000
    O143    O    0.83461   0.69113   0.53659   1.000
    O144    O    0.32516   0.68000   0.39257   1.000
    O145    O    0.82516   0.68001   0.39257   1.000
    O146    O    0.43088   0.73932   0.22635   1.000
    O147    O    0.93088   0.73932   0.22635   1.000
    O148    O    0.48529   0.94681   0.19624   1.000
    O149    O    0.98529   0.94681   0.19624   1.000
    O150    O    0.10741   0.00812   0.23336   1.000
    O151    O    0.60741   0.00812   0.23336   1.000
    O152    O    0.29230   0.83523   0.18872   1.000
    O153    O    0.79230   0.83523   0.18872   1.000
    O154    O    0.25733   0.67004   0.20835   1.000
    O155    O    0.75733   0.67004   0.20835   1.000
    O156    O    0.41551   0.81063   0.03730   1.000
    O157    O    0.91552   0.81063   0.03730   1.000
    O158    O    0.42447   0.81811   0.89308   1.000
    O159    O    0.92447   0.81811   0.89308   1.000
loop_
    _geom_bond_atom_site_label_1
    _geom_bond_atom_site_label_2
    _geom_bond_distance
    _geom_bond_site_symmetry_2
    _ccdc_geom_bond_type
    C66    H14       1.11004      .   S
    C66    O130      1.26664      .   S
    C66    O128      1.26647  1_554   S
    C67    H15       1.11006      .   S
    C67    O131      1.26664      .   S
    C67    O129      1.26645  1_554   S
    O157   C103      1.26643  1_554   S
    O156   C102      1.26684  1_554   S
    O152   C100      1.29043      .   S
    O153   C101      1.29043      .   S
    O148   C99       1.28247      .   S
    O149   C98       1.28243  1_655   S
    C101   O155      1.27892      .   S
    C101   C93       1.47767      .   S
    C100   O154      1.27892      .   S
    C100   C92       1.47769      .   S
    H25    C91       1.08707      .   S
    H24    C90       1.08706      .   S
    C91    C93       1.39399      .   S
    C91    C89       1.40349      .   S
    C90    C92       1.39400      .   S
    C90    C88       1.40349      .   S
    C93    C95       1.40959      .   S
    C92    C94       1.40958      .   S
    C99    C89       1.48409      .   S
    C99    O151      1.28685  1_565   S
    C98    C88       1.48408      .   S
    C98    O150      1.28685  1_565   S
    C88    C87       1.47913      .   S
    C89    C86       1.43034      .   S
    C94    H26       1.08940      .   S
    C94    C96       1.38189      .   S
    C95    H27       1.08941      .   S
    C95    C97       1.38190      .   S
    C86    C97       1.41220      .   S
    C86    O146      1.34077      .   S
    C87    C96       1.46667      .   S
    C87    O147      1.24427  1_455   S
    C96    H29       1.08858  1_455   S
    C97    H28       1.08860      .   S
    O109   C45       1.28711      .   S
    O108   C44       1.28709      .   S
    H4     C42       1.08859      .   S
    H5     C43       1.08859      .   S
    O105   C33       1.34073      .   S
    O104   C32       1.34071      .   S
    C42    C32       1.41201      .   S
    C42    C40       1.38187      .   S
    C43    C33       1.41201      .   S
    C43    C41       1.38186      .   S
    C33    C35       1.43000      .   S
    C32    C34       1.43000      .   S
    H3     C41       1.08941      .   S
    H2     C40       1.08941      .   S
    C41    C39       1.40952      .   S
    C40    C38       1.40953      .   S
    C34    C44       1.48359      .   S
    C34    C36       1.40319      .   S
    C35    C45       1.48356      .   S
    C35    C37       1.40319      .   S
    C44    O106      1.28215      .   S
    C45    O107      1.28218      .   S
    C38    C36       1.39377      .   S
    C38    C46       1.47708      .   S
    C39    C37       1.39377      .   S
    C39    C47       1.47709      .   S
    C37    H1        1.08702      .   S
    C36    H0        1.08701      .   S
    O112   C46       1.27900      .   S
    O113   C47       1.21969  1_455   S
    C46    O111      1.29021      .   S
    C47    O110      1.29018  1_655   S
    O144   C84       1.26625      .   S
    O145   C85       1.26625      .   S
    O114   C48       1.26756      .   S
    O115   C49       1.26757      .   S
    C84    H22       1.11005      .   S
    C84    O142      1.26757      .   S
    C85    H23       1.11007      .   S
    C85    O143      1.26757      .   S
    H6     C48       1.11007      .   S
    H7     C49       1.11005      .   S
    C48    O116      1.26624      .   S
    C49    O117      1.26626      .   S
    O139   C82       1.29016  1_655   S
    O138   C83       1.29017      .   S
    O134   C80       1.28219      .   S
    O135   C81       1.28217      .   S
    C83    O141      1.27895      .   S
    C83    C75       1.47710      .   S
    C82    O140      1.27900  1_455   S
    C82    C74       1.47708      .   S
    H16    C72       1.08694      .   S
    H17    C73       1.08702      .   S
    C72    C74       1.39379      .   S
    C72    C70       1.40325      .   S
    C73    C75       1.39376      .   S
    C73    C71       1.40320      .   S
    C74    C76       1.40952      .   S
    C75    C77       1.40952      .   S
    C80    C70       1.48357      .   S
    C80    O136      1.28712      .   S
    C81    C71       1.48358      .   S
    C81    O137      1.28712      .   S
    C71    C69       1.42999      .   S
    C70    C68       1.42999      .   S
    C76    H18       1.08941      .   S
    C76    C78       1.38186      .   S
    C77    H19       1.08941      .   S
    C77    C79       1.38187      .   S
    C69    C79       1.41201      .   S
    C69    O133      1.34071      .   S
    C68    C78       1.41199      .   S
    C68    O132      1.34073      .   S
    C78    H20       1.08860      .   S
    C79    H21       1.08859      .   S
    O122   C62       1.28686  1_565   S
    O123   C63       1.28686  1_565   S
    H13    C60       1.08861      .   S
    H12    C61       1.08858  1_455   S
    O118   C50       1.34072  1_455   S
    O119   C51       1.34074      .   S
    C60    C51       1.41219      .   S
    C60    C58       1.38189      .   S
    C61    C50       1.41216      .   S
    C61    C59       1.38189      .   S
    C51    C52       1.43039      .   S
    C50    C53       1.43036      .   S
    H11    C59       1.08941      .   S
    H10    C58       1.08941      .   S
    C58    C56       1.40957      .   S
    C59    C57       1.40958      .   S
    C53    C63       1.48408      .   S
    C53    C55       1.40350      .   S
    C52    C62       1.48409      .   S
    C52    C54       1.40350      .   S
    C63    O120      1.28217  1_655   S
    C62    O121      1.28222      .   S
    C56    C54       1.39400      .   S
    C56    C64       1.47770      .   S
    C57    C55       1.39400      .   S
    C57    C65       1.47769      .   S
    C54    H8        1.08706      .   S
    C55    H9        1.08707      .   S
    O126   C64       1.27894      .   S
    O127   C65       1.27893      .   S
    C64    O124      1.29041      .   S
    C65    O125      1.29041      .   S
    O159   C103      1.26669      .   S
    O158   C102      1.26627      .   S
    H31    C103      1.11005      .   S
    H30    C102      1.11005      .   S
