# CIF file generated by openbabel 2.4.90, see http://openbabel.sf.net
data_I
_chemical_name_common ''
_cell_length_a 18.28
_cell_length_b 14.29
_cell_length_c 15.324
_cell_angle_alpha 89.443
_cell_angle_beta 90.195
_cell_angle_gamma 107.341
_space_group_name_H-M_alt 'P 1'
_space_group_name_Hall 'P 1'
loop_
    _symmetry_equiv_pos_as_xyz
    x,y,z
loop_
    _atom_site_label
    _atom_site_type_symbol
    _atom_site_fract_x
    _atom_site_fract_y
    _atom_site_fract_z
    _atom_site_occupancy
    N0      N    0.35315   0.27730   0.28586   1.000
    N1      N    0.85270   0.27730   0.28586   1.000
    N2      N    0.89683   0.22156   0.78570   1.000
    N3      N    0.39683   0.22156   0.78570   1.000
    N4      N    0.64684   0.72271   0.71415   1.000
    N5      N    0.14684   0.72271   0.71415   1.000
    N6      N    0.40521   0.84543   0.96454   1.000
    N7      N    0.90520   0.84542   0.96455   1.000
    N8      N    0.09476   0.15456   0.03546   1.000
    N9      N    0.10282   0.77844   0.21430   1.000
    N10     N    0.60315   0.77844   0.21430   1.000
    N11     N    0.34518   0.65502   0.46523   1.000
    N12     N    0.65480   0.34497   0.53478   1.000
    N13     N    0.84518   0.65502   0.46523   1.000
    N14     N    0.59477   0.15457   0.03546   1.000
    N15     N    0.15480   0.34498   0.53478   1.000
    Zr16    Zr   0.33801   0.63430   0.27400   1.000
    O17     O    0.26913   0.67480   0.25087   1.000
    O18     O    0.33820   0.64519   0.33663   1.000
    O19     O    0.34423   0.52918   0.27604   1.000
    O20     O    0.41590   0.68346   0.25312   1.000
    Zr21    Zr   0.10390   0.16078   0.84099   1.000
    O22     O    0.09919   0.16280   0.90482   1.000
    O23     O    0.19011   0.17647   0.82346   1.000
    Zr24    Zr   0.83801   0.63430   0.27400   1.000
    O25     O    0.76921   0.67480   0.25087   1.000
    O26     O    0.91582   0.68346   0.25312   1.000
    O27     O    0.83820   0.64519   0.33663   1.000
    O28     O    0.84412   0.52918   0.27604   1.000
    Zr29    Zr   0.14612   0.33725   0.34101   1.000
    O30     O    0.15070   0.33564   0.40475   1.000
    O31     O    0.05979   0.32180   0.32348   1.000
    Zr32    Zr   0.41186   0.86453   0.77401   1.000
    O33     O    0.33400   0.81619   0.75303   1.000
    O34     O    0.41177   0.85395   0.83653   1.000
    O35     O    0.40569   0.96971   0.77601   1.000
    O36     O    0.48072   0.82493   0.75081   1.000
    Zr37    Zr   0.85387   0.66275   0.65900   1.000
    O38     O    0.84929   0.66436   0.59526   1.000
    O39     O    0.94009   0.67820   0.67653   1.000
    Zr40    Zr   0.64612   0.33725   0.34101   1.000
    O41     O    0.65070   0.33564   0.40475   1.000
    O42     O    0.55990   0.32180   0.32348   1.000
    Zr43    Zr   0.08813   0.13547   0.22600   1.000
    O44     O    0.09421   0.03030   0.22399   1.000
    O45     O    0.08821   0.14605   0.16348   1.000
    O46     O    0.16599   0.18382   0.24698   1.000
    O47     O    0.01826   0.17508   0.24920   1.000
    Zr48    Zr   0.91186   0.86453   0.77401   1.000
    O49     O    0.83400   0.81619   0.75303   1.000
    O50     O    0.91177   0.85395   0.83653   1.000
    O51     O    0.90569   0.96971   0.77601   1.000
    O52     O    0.98072   0.82493   0.75081   1.000
    Zr53    Zr   0.66198   0.36571   0.72596   1.000
    O54     O    0.66179   0.35481   0.66335   1.000
    O55     O    0.73078   0.32520   0.74911   1.000
    O56     O    0.58408   0.31654   0.74686   1.000
    O57     O    0.65575   0.47082   0.72394   1.000
    Zr58    Zr   0.35387   0.66275   0.65900   1.000
    O59     O    0.34929   0.66437   0.59526   1.000
    O60     O    0.44009   0.67820   0.67653   1.000
    Zr61    Zr   0.16198   0.36571   0.72596   1.000
    O62     O    0.16179   0.35481   0.66335   1.000
    O63     O    0.08408   0.31654   0.74686   1.000
    O64     O    0.23078   0.32520   0.74911   1.000
    O65     O    0.15575   0.47082   0.72394   1.000
    Zr66    Zr   0.89608   0.83922   0.15902   1.000
    O67     O    0.90079   0.83720   0.09519   1.000
    O68     O    0.80988   0.82353   0.17655   1.000
    Zr69    Zr   0.58813   0.13547   0.22600   1.000
    O70     O    0.58822   0.14605   0.16348   1.000
    O71     O    0.51927   0.17508   0.24920   1.000
    O72     O    0.59430   0.03030   0.22399   1.000
    O73     O    0.66588   0.18382   0.24698   1.000
    Zr74    Zr   0.60391   0.16078   0.84099   1.000
    O75     O    0.59919   0.16280   0.90482   1.000
    O76     O    0.69011   0.17648   0.82346   1.000
    Zr77    Zr   0.39608   0.83922   0.15902   1.000
    O78     O    0.40079   0.83720   0.09518   1.000
    O79     O    0.30979   0.82353   0.17655   1.000
    O80     O    0.70552   0.32285   0.32070   1.000
    O81     O    0.45560   0.82451   0.17937   1.000
    O82     O    0.95552   0.82451   0.17937   1.000
    O83     O    0.04439   0.17550   0.82063   1.000
    O84     O    0.29435   0.67715   0.67931   1.000
    O85     O    0.54439   0.17550   0.82063   1.000
    O86     O    0.20564   0.32285   0.32070   1.000
    O87     O    0.79436   0.67715   0.67931   1.000
loop_
    _geom_bond_atom_site_label_1
    _geom_bond_atom_site_label_2
    _geom_bond_distance
    _geom_bond_site_symmetry_2
    _ccdc_geom_bond_type
    Zr16   O17       1.57275      .   S
    N9     O17       3.79549      .   S
    Zr16   O18       0.97359      .   S
    N11    O18       1.97803      .   S
    Zr16   O19       1.53986      .   S
    N0     O19       3.65299      .   S
    Zr16   O20       1.42334      .   S
    N10    O20       3.33783      .   S
    Zr21   O22       0.98371      .   S
    N8     O22       2.00473  1_554   S
    Zr21   O23       1.54815      .   S
    N3     O23       3.68594      .   S
    Zr24   O25       1.57138      .   S
    N10    O25       3.79133      .   S
    Zr24   O26       1.42205      .   S
    N9     O26       3.33371  1_455   S
    Zr24   O27       0.97359      .   S
    N13    O27       1.97803      .   S
    Zr24   O28       1.53911      .   S
    N1     O28       3.65091      .   S
    Zr29   O30       0.98075      .   S
    N15    O30       1.99797      .   S
    Zr29   O31       1.54988      .   S
    N1     O31       3.69106  1_655   S
    Zr32   O33       1.42172      .   S
    N5     O33       3.33505      .   S
    Zr32   O34       0.96833      .   S
    N6     O34       1.96614      .   S
    Zr32   O35       1.54092      .   S
    N3     O35       3.65497  1_545   S
    Zr32   O36       1.56937      .   S
    N4     O36       3.78709      .   S
    Zr37   O38       0.98074      .   S
    N13    O38       1.99795      .   S
    Zr37   O39       1.54788      .   S
    N5     O39       3.68505  1_455   S
    Zr40   O41       0.98075      .   S
    N12    O41       1.99797      .   S
    Zr40   O42       1.54788      .   S
    N0     O42       3.68509      .   S
    Zr43   O44       1.54037      .   S
    N9     O44       3.65343  1_565   S
    Zr43   O45       0.96836      .   S
    N8     O45       1.96620      .   S
    Zr43   O46       1.42172      .   S
    N0     O46       3.33505      .   S
    Zr43   O47       1.58623      .   S
    N1     O47       3.77763  1_655   S
    Zr48   O49       1.42172      .   S
    N4     O49       3.33504      .   S
    Zr48   O50       0.96836      .   S
    N7     O50       1.96623      .   S
    Zr48   O51       1.54093      .   S
    N2     O51       3.65497  1_545   S
    Zr48   O52       1.56934      .   S
    N5     O52       3.78708  1_455   S
    Zr53   O54       0.97330      .   S
    N12    O54       1.97754      .   S
    Zr53   O55       1.57143      .   S
    N2     O55       3.79137      .   S
    Zr53   O56       1.42342      .   S
    N3     O56       3.33793      .   S
    Zr53   O57       1.53985      .   S
    N4     O57       3.65297      .   S
    Zr58   O59       0.98074      .   S
    N11    O59       1.99795      .   S
    Zr58   O60       1.54789      .   S
    N4     O60       3.68508      .   S
    Zr61   O62       0.97330      .   S
    N15    O62       1.97753      .   S
    Zr61   O63       1.42341      .   S
    N2     O63       3.33791  1_655   S
    Zr61   O64       1.57142      .   S
    N3     O64       3.79137      .   S
    Zr61   O65       1.53985      .   S
    N5     O65       3.65297      .   S
    Zr66   O67       0.98371      .   S
    N7     O67       2.00471  1_556   S
    Zr66   O68       1.54815      .   S
    N10    O68       3.68594      .   S
    Zr69   O70       0.96836      .   S
    N14    O70       1.96621      .   S
    Zr69   O71       1.56936      .   S
    N0     O71       3.78710      .   S
    Zr69   O72       1.54092      .   S
    N10    O72       3.65496  1_565   S
    Zr69   O73       1.41996      .   S
    N1     O73       3.32945      .   S
    Zr74   O75       0.98371      .   S
    N14    O75       2.00472  1_554   S
    Zr74   O76       1.54815      .   S
    N2     O76       3.68594      .   S
    Zr77   O78       0.98374      .   S
    N6     O78       2.00480  1_556   S
    Zr77   O79       1.54961      .   S
    N9     O79       3.69033      .   S
    Zr40   O80       1.20624      .   S
    N1     O80       3.00132      .   S
    Zr77   O81       1.20750      .   S
    N10    O81       3.00614      .   S
    Zr66   O82       1.20604      .   S
    N9     O82       3.00174  1_455   S
    Zr21   O83       1.20751      .   S
    N2     O83       3.00611  1_655   S
    Zr58   O84       1.20819      .   S
    N5     O84       3.00725      .   S
    Zr74   O85       1.20751      .   S
    N3     O85       3.00613      .   S
    Zr29   O86       1.20820      .   S
    N0     O86       3.00726      .   S
    N4     O87       3.00725      .   S
    Zr37   O87       1.20819      .   S
