# CIF file generated by openbabel 2.4.90, see http://openbabel.sf.net
data_I
_chemical_name_common ''
_cell_length_a 18.28
_cell_length_b 14.29
_cell_length_c 15.324
_cell_angle_alpha 89.443
_cell_angle_beta 90.195
_cell_angle_gamma 107.341
_space_group_name_H-M_alt 'P 1'
_space_group_name_Hall 'P 1'
loop_
    _symmetry_equiv_pos_as_xyz
    x,y,z
loop_
    _atom_site_label
    _atom_site_type_symbol
    _atom_site_fract_x
    _atom_site_fract_y
    _atom_site_fract_z
    _atom_site_occupancy
    N0      N    0.35315   0.27730   0.28586   1.000
    N1      N    0.85270   0.27730   0.28586   1.000
    N2      N    0.89683   0.22156   0.78570   1.000
    N3      N    0.39683   0.22156   0.78570   1.000
    N4      N    0.64684   0.72271   0.71415   1.000
    N5      N    0.14684   0.72271   0.71415   1.000
    N6      N    0.40521   0.84543   0.96454   1.000
    N7      N    0.90520   0.84542   0.96455   1.000
    N8      N    0.09476   0.15456   0.03546   1.000
    N9      N    0.10282   0.77844   0.21430   1.000
    N10     N    0.60315   0.77844   0.21430   1.000
    N11     N    0.34518   0.65502   0.46523   1.000
    N12     N    0.65480   0.34497   0.53478   1.000
    N13     N    0.84518   0.65502   0.46523   1.000
    N14     N    0.59477   0.15457   0.03546   1.000
    N15     N    0.15480   0.34498   0.53478   1.000
    Zr16    Zr   0.33801   0.63430   0.27400   1.000
    O17     O    0.26913   0.67480   0.25087   1.000
    O18     O    0.33820   0.64519   0.33663   1.000
    O19     O    0.34423   0.52918   0.27604   1.000
    O20     O    0.41590   0.68346   0.25312   1.000
    Zr21    Zr   0.10390   0.16078   0.84099   1.000
    O22     O    0.09919   0.16280   0.90482   1.000
    O23     O    0.04099   0.16253   0.82251   1.000
    O24     O    0.04779   0.18846   0.81875   1.000
    O25     O    0.19011   0.17647   0.82346   1.000
    Zr26    Zr   0.83801   0.63430   0.27400   1.000
    O27     O    0.76921   0.67480   0.25087   1.000
    O28     O    0.91582   0.68346   0.25312   1.000
    O29     O    0.83820   0.64519   0.33663   1.000
    O30     O    0.84412   0.52918   0.27604   1.000
    Zr31    Zr   0.14612   0.33725   0.34101   1.000
    O32     O    0.15070   0.33564   0.40475   1.000
    O33     O    0.20223   0.30993   0.31886   1.000
    O34     O    0.05979   0.32180   0.32348   1.000
    O35     O    0.20904   0.33578   0.32254   1.000
    Zr36    Zr   0.41186   0.86453   0.77401   1.000
    O37     O    0.33400   0.81619   0.75303   1.000
    O38     O    0.41177   0.85395   0.83653   1.000
    O39     O    0.40569   0.96971   0.77601   1.000
    O40     O    0.48072   0.82493   0.75081   1.000
    Zr41    Zr   0.85387   0.66275   0.65900   1.000
    O42     O    0.79776   0.69007   0.68115   1.000
    O43     O    0.84929   0.66436   0.59526   1.000
    O44     O    0.94009   0.67820   0.67653   1.000
    O45     O    0.79095   0.66423   0.67747   1.000
    Zr46    Zr   0.64612   0.33725   0.34101   1.000
    O47     O    0.65070   0.33564   0.40475   1.000
    O48     O    0.70893   0.33578   0.32254   1.000
    O49     O    0.70212   0.30993   0.31886   1.000
    O50     O    0.55990   0.32180   0.32348   1.000
    Zr51    Zr   0.08813   0.13547   0.22600   1.000
    O52     O    0.09421   0.03030   0.22399   1.000
    O53     O    0.08821   0.14605   0.16348   1.000
    O54     O    0.16599   0.18382   0.24698   1.000
    O55     O    0.01826   0.17508   0.24920   1.000
    Zr56    Zr   0.91186   0.86453   0.77401   1.000
    O57     O    0.83400   0.81619   0.75303   1.000
    O58     O    0.91177   0.85395   0.83653   1.000
    O59     O    0.90569   0.96971   0.77601   1.000
    O60     O    0.98072   0.82493   0.75081   1.000
    Zr61    Zr   0.66198   0.36571   0.72596   1.000
    O62     O    0.66179   0.35481   0.66335   1.000
    O63     O    0.73078   0.32520   0.74911   1.000
    O64     O    0.58408   0.31654   0.74686   1.000
    O65     O    0.65575   0.47082   0.72394   1.000
    Zr66    Zr   0.35387   0.66275   0.65900   1.000
    O67     O    0.29776   0.69007   0.68115   1.000
    O68     O    0.34929   0.66437   0.59526   1.000
    O69     O    0.29095   0.66423   0.67747   1.000
    O70     O    0.44009   0.67820   0.67653   1.000
    Zr71    Zr   0.16198   0.36571   0.72596   1.000
    O72     O    0.16179   0.35481   0.66335   1.000
    O73     O    0.08408   0.31654   0.74686   1.000
    O74     O    0.23078   0.32520   0.74911   1.000
    O75     O    0.15575   0.47082   0.72394   1.000
    Zr76    Zr   0.89608   0.83922   0.15902   1.000
    O77     O    0.95212   0.81154   0.18126   1.000
    O78     O    0.90079   0.83720   0.09519   1.000
    O79     O    0.80988   0.82353   0.17655   1.000
    O80     O    0.95892   0.83748   0.17749   1.000
    Zr81    Zr   0.58813   0.13547   0.22600   1.000
    O82     O    0.58822   0.14605   0.16348   1.000
    O83     O    0.51927   0.17508   0.24920   1.000
    O84     O    0.59430   0.03030   0.22399   1.000
    O85     O    0.66588   0.18382   0.24698   1.000
    Zr86    Zr   0.60391   0.16078   0.84099   1.000
    O87     O    0.59919   0.16280   0.90482   1.000
    O88     O    0.69011   0.17648   0.82346   1.000
    O89     O    0.54779   0.18846   0.81875   1.000
    O90     O    0.54099   0.16253   0.82251   1.000
    Zr91    Zr   0.39608   0.83922   0.15902   1.000
    O92     O    0.40079   0.83720   0.09518   1.000
    O93     O    0.30979   0.82353   0.17655   1.000
    O94     O    0.45900   0.83748   0.17749   1.000
    O95     O    0.45220   0.81154   0.18126   1.000
loop_
    _geom_bond_atom_site_label_1
    _geom_bond_atom_site_label_2
    _geom_bond_distance
    _geom_bond_site_symmetry_2
    _ccdc_geom_bond_type
    Zr16   O17       1.57275      .   S
    N9     O17       3.79549      .   S
    Zr16   O18       0.97359      .   S
    N11    O18       1.97803      .   S
    Zr16   O19       1.53986      .   S
    N0     O19       3.65299      .   S
    Zr16   O20       1.42334      .   S
    N10    O20       3.33783      .   S
    Zr21   O22       0.98371      .   S
    N8     O22       2.00473  1_554   S
    Zr21   O23       1.19099      .   S
    N2     O23       3.04617  1_655   S
    Zr21   O24       1.24974      .   S
    N2     O24       2.97630  1_655   S
    Zr21   O25       1.54815      .   S
    N3     O25       3.68594      .   S
    Zr26   O27       1.57138      .   S
    N10    O27       3.79133      .   S
    Zr26   O28       1.42205      .   S
    N9     O28       3.33371  1_455   S
    Zr26   O29       0.97359      .   S
    N13    O29       1.97803      .   S
    Zr26   O30       1.53911      .   S
    N1     O30       3.65091      .   S
    Zr31   O32       0.98075      .   S
    N15    O32       1.99797      .   S
    Zr31   O33       1.25035      .   S
    N0     O33       2.97748      .   S
    Zr31   O34       1.54988      .   S
    N1     O34       3.69106  1_655   S
    Zr31   O35       1.19170      .   S
    N0     O35       3.04728      .   S
    Zr36   O37       1.42172      .   S
    N5     O37       3.33505      .   S
    Zr36   O38       0.96833      .   S
    N6     O38       1.96614      .   S
    Zr36   O39       1.54092      .   S
    N3     O39       3.65497  1_545   S
    Zr36   O40       1.56937      .   S
    N4     O40       3.78709      .   S
    Zr41   O42       1.25034      .   S
    N4     O42       2.97747      .   S
    Zr41   O43       0.98074      .   S
    N13    O43       1.99795      .   S
    Zr41   O44       1.54788      .   S
    N5     O44       3.68505  1_455   S
    Zr41   O45       1.19169      .   S
    N4     O45       3.04727      .   S
    Zr46   O47       0.98075      .   S
    N12    O47       1.99797      .   S
    Zr46   O48       1.18969      .   S
    N1     O48       3.04143      .   S
    Zr46   O49       1.24846      .   S
    N1     O49       2.97146      .   S
    Zr46   O50       1.54788      .   S
    N0     O50       3.68509      .   S
    Zr51   O52       1.54037      .   S
    N9     O52       3.65343  1_565   S
    Zr51   O53       0.96836      .   S
    N8     O53       1.96620      .   S
    Zr51   O54       1.42172      .   S
    N0     O54       3.33505      .   S
    Zr51   O55       1.58623      .   S
    N1     O55       3.77763  1_655   S
    Zr56   O57       1.42172      .   S
    N4     O57       3.33504      .   S
    Zr56   O58       0.96836      .   S
    N7     O58       1.96623      .   S
    Zr56   O59       1.54093      .   S
    N2     O59       3.65497  1_545   S
    Zr56   O60       1.56934      .   S
    N5     O60       3.78708  1_455   S
    Zr61   O62       0.97330      .   S
    N12    O62       1.97754      .   S
    Zr61   O63       1.57143      .   S
    N2     O63       3.79137      .   S
    Zr61   O64       1.42342      .   S
    N3     O64       3.33793      .   S
    Zr61   O65       1.53985      .   S
    N4     O65       3.65297      .   S
    Zr66   O67       1.25034      .   S
    N5     O67       2.97747      .   S
    Zr66   O68       0.98074      .   S
    N11    O68       1.99795      .   S
    Zr66   O69       1.19169      .   S
    N5     O69       3.04727      .   S
    Zr66   O70       1.54789      .   S
    N4     O70       3.68508      .   S
    Zr71   O72       0.97330      .   S
    N15    O72       1.97753      .   S
    Zr71   O73       1.42341      .   S
    N2     O73       3.33791  1_655   S
    Zr71   O74       1.57142      .   S
    N3     O74       3.79137      .   S
    Zr71   O75       1.53985      .   S
    N5     O75       3.65297      .   S
    Zr76   O77       1.24835      .   S
    N9     O77       2.97186  1_455   S
    Zr76   O78       0.98371      .   S
    N7     O78       2.00471  1_556   S
    Zr76   O79       1.54815      .   S
    N10    O79       3.68594      .   S
    Zr76   O80       1.18948      .   S
    N9     O80       3.04188  1_455   S
    Zr81   O82       0.96836      .   S
    N14    O82       1.96621      .   S
    Zr81   O83       1.56936      .   S
    N0     O83       3.78710      .   S
    Zr81   O84       1.54092      .   S
    N10    O84       3.65496  1_565   S
    Zr81   O85       1.41996      .   S
    N1     O85       3.32945      .   S
    Zr86   O87       0.98371      .   S
    N14    O87       2.00472  1_554   S
    Zr86   O88       1.54815      .   S
    N2     O88       3.68594      .   S
    Zr86   O89       1.24974      .   S
    N3     O89       2.97632      .   S
    Zr86   O90       1.19099      .   S
    N3     O90       3.04619      .   S
    Zr91   O92       0.98374      .   S
    N6     O92       2.00480  1_556   S
    Zr91   O93       1.54961      .   S
    N9     O93       3.69033      .   S
    Zr91   O94       1.19096      .   S
    N10    O94       3.04622      .   S
    Zr91   O95       1.24975      .   S
    N10    O95       2.97632      .   S
