# CIF file generated by openbabel 2.4.90, see http://openbabel.sf.net
data_I
_chemical_name_common ''
_cell_length_a 18.28
_cell_length_b 14.29
_cell_length_c 15.324
_cell_angle_alpha 89.443
_cell_angle_beta 90.195
_cell_angle_gamma 107.341
_space_group_name_H-M_alt 'P 1'
_space_group_name_Hall 'P 1'
loop_
    _symmetry_equiv_pos_as_xyz
    x,y,z
loop_
    _atom_site_label
    _atom_site_type_symbol
    _atom_site_fract_x
    _atom_site_fract_y
    _atom_site_fract_z
    _atom_site_occupancy
    Zr0     Zr   0.14612   0.33725   0.34101   1.000
    Zr1     Zr   0.64612   0.33725   0.34101   1.000
    Zr2     Zr   0.08813   0.13547   0.22600   1.000
    Zr3     Zr   0.58813   0.13547   0.22600   1.000
    Zr4     Zr   0.10390   0.16078   0.84099   1.000
    Zr5     Zr   0.60391   0.16078   0.84099   1.000
    Zr6     Zr   0.16198   0.36571   0.72596   1.000
    Zr7     Zr   0.66198   0.36571   0.72596   1.000
    Zr8     Zr   0.35387   0.66275   0.65900   1.000
    Zr9     Zr   0.85387   0.66275   0.65900   1.000
    Zr10    Zr   0.41186   0.86453   0.77401   1.000
    Zr11    Zr   0.91186   0.86453   0.77401   1.000
    Zr12    Zr   0.39608   0.83922   0.15902   1.000
    Zr13    Zr   0.89608   0.83922   0.15902   1.000
    Zr14    Zr   0.33801   0.63430   0.27400   1.000
    Zr15    Zr   0.83801   0.63430   0.27400   1.000
    N16     N    0.35315   0.27730   0.28586   1.000
    O17     O    0.47368   0.30635   0.30595   1.000
    O18     O    0.25834   0.28261   0.29671   1.000
    O19     O    0.24384   0.23217   0.26795   1.000
    O20     O    0.45041   0.21469   0.27240   1.000
    O21     O    0.27196   0.33430   0.30406   1.000
    O22     O    0.35046   0.42407   0.27809   1.000
    N23     N    0.85270   0.27730   0.28586   1.000
    O24     O    0.85024   0.42407   0.27808   1.000
    O25     O    0.97345   0.30635   0.30595   1.000
    O26     O    0.94838   0.21469   0.27240   1.000
    O27     O    0.75812   0.28261   0.29671   1.000
    O28     O    0.74362   0.23217   0.26795   1.000
    O29     O    0.77173   0.33430   0.30406   1.000
    N30     N    0.89683   0.22156   0.78570   1.000
    O31     O    0.89953   0.07488   0.77802   1.000
    O32     O    0.77632   0.19217   0.80592   1.000
    O33     O    0.79958   0.28470   0.77226   1.000
    O34     O    0.99167   0.21615   0.79651   1.000
    O35     O    0.00619   0.26738   0.76776   1.000
    O36     O    0.97807   0.16427   0.80402   1.000
    N37     N    0.39683   0.22156   0.78570   1.000
    O38     O    0.47807   0.16427   0.80402   1.000
    O39     O    0.39953   0.07488   0.77802   1.000
    O40     O    0.27631   0.19217   0.80592   1.000
    O41     O    0.29957   0.28470   0.77226   1.000
    O42     O    0.49167   0.21615   0.79651   1.000
    O43     O    0.50619   0.26738   0.76776   1.000
    N44     N    0.64684   0.72271   0.71415   1.000
    O45     O    0.54958   0.78532   0.72760   1.000
    O46     O    0.74165   0.71739   0.70330   1.000
    O47     O    0.75615   0.76784   0.73205   1.000
    O48     O    0.72804   0.66571   0.69594   1.000
    O49     O    0.64953   0.57594   0.72191   1.000
    O50     O    0.52631   0.69366   0.69406   1.000
    N51     N    0.14684   0.72271   0.71415   1.000
    O52     O    0.04958   0.78532   0.72761   1.000
    O53     O    0.24165   0.71739   0.70330   1.000
    O54     O    0.25615   0.76784   0.73205   1.000
    O55     O    0.22803   0.66571   0.69594   1.000
    O56     O    0.14953   0.57594   0.72191   1.000
    O57     O    0.02631   0.69366   0.69406   1.000
    N58     N    0.40521   0.84543   0.96454   1.000
    O59     O    0.40550   0.83518   0.03135   1.000
    O60     O    0.41169   0.84337   0.89904   1.000
    N61     N    0.90520   0.84542   0.96455   1.000
    O62     O    0.90550   0.83517   0.03135   1.000
    O63     O    0.91168   0.84337   0.89905   1.000
    N64     N    0.09476   0.15456   0.03546   1.000
    O65     O    0.09448   0.16482   0.96866   1.000
    O66     O    0.08830   0.15662   0.10096   1.000
    N67     N    0.10282   0.77844   0.21430   1.000
    O68     O    0.22350   0.80783   0.19408   1.000
    O69     O    0.20025   0.71531   0.22774   1.000
    O70     O    0.00815   0.78386   0.20349   1.000
    O71     O    0.99363   0.73263   0.23224   1.000
    O72     O    0.02175   0.83573   0.19596   1.000
    O73     O    0.10030   0.92512   0.22199   1.000
    N74     N    0.60315   0.77844   0.21430   1.000
    O75     O    0.72367   0.80783   0.19408   1.000
    O76     O    0.70041   0.71531   0.22774   1.000
    O77     O    0.50832   0.78386   0.20349   1.000
    O78     O    0.49380   0.73263   0.23224   1.000
    O79     O    0.52192   0.83573   0.19596   1.000
    O80     O    0.60046   0.92512   0.22199   1.000
    N81     N    0.34518   0.65502   0.46523   1.000
    O82     O    0.34471   0.66598   0.53151   1.000
    O83     O    0.33838   0.65609   0.39926   1.000
    N84     N    0.65480   0.34497   0.53478   1.000
    O85     O    0.65528   0.33402   0.46850   1.000
    O86     O    0.66160   0.34391   0.60074   1.000
    N87     N    0.84518   0.65502   0.46523   1.000
    O88     O    0.84471   0.66598   0.53151   1.000
    O89     O    0.83838   0.65609   0.39926   1.000
    N90     N    0.59477   0.15457   0.03546   1.000
    O91     O    0.59448   0.16482   0.96866   1.000
    O92     O    0.58830   0.15663   0.10096   1.000
    N93     N    0.15480   0.34498   0.53478   1.000
    O94     O    0.15528   0.33402   0.46850   1.000
    O95     O    0.16160   0.34392   0.60074   1.000
loop_
    _geom_bond_atom_site_label_1
    _geom_bond_atom_site_label_2
    _geom_bond_distance
    _geom_bond_site_symmetry_2
    _ccdc_geom_bond_type
    N16    O17       2.13867      .   S
    Zr1    O17       3.09577      .   S
    N16    O18       1.76573      .   S
    Zr0    O18       2.50069      .   S
    N16    O19       1.92754      .   S
    Zr2    O19       2.84344      .   S
    N16    O20       2.22670      .   S
    Zr3    O20       3.13872      .   S
    N16    O21       1.91636      .   S
    Zr0    O21       2.38339      .   S
    N16    O22       2.11475      .   S
    Zr14   O22       3.07972      .   S
    N23    O24       2.11345      .   S
    Zr15   O24       3.07821      .   S
    N23    O25       2.14265      .   S
    Zr0    O25       3.09976  1_455   S
    N23    O26       2.20024      .   S
    Zr2    O26       3.17247  1_455   S
    N23    O27       1.76164      .   S
    Zr1    O27       2.49692      .   S
    N23    O28       1.92368      .   S
    Zr3    O28       2.83992      .   S
    N23    O29       1.91265      .   S
    Zr1    O29       2.37939      .   S
    N30    O31       2.11563      .   S
    Zr11   O31       3.08185  1_565   S
    N30    O32       2.13926      .   S
    Zr5    O32       3.09630      .   S
    N30    O33       2.22877      .   S
    Zr7    O33       3.14285      .   S
    N30    O34       1.76536      .   S
    Zr4    O34       2.49948  1_455   S
    N30    O35       1.92881  1_655   S
    Zr6    O35       2.84682      .   S
    N30    O36       1.91607      .   S
    Zr4    O36       2.38198  1_455   S
    N37    O38       1.91609      .   S
    Zr5    O38       2.38199      .   S
    N37    O39       2.11563      .   S
    Zr10   O39       3.08185  1_565   S
    N37    O40       2.13926      .   S
    Zr4    O40       3.09630      .   S
    N37    O41       2.22878      .   S
    Zr6    O41       3.14285      .   S
    N37    O42       1.76538      .   S
    Zr5    O42       2.49949      .   S
    N37    O43       1.92883      .   S
    Zr7    O43       2.84683      .   S
    N44    O45       2.22669      .   S
    Zr10   O45       3.13874      .   S
    N44    O46       1.76573      .   S
    Zr9    O46       2.50068      .   S
    N44    O47       1.92754      .   S
    Zr11   O47       2.84344      .   S
    N44    O48       1.91636      .   S
    Zr9    O48       2.38338      .   S
    N44    O49       2.11474      .   S
    Zr7    O49       3.07970      .   S
    N44    O50       2.13866      .   S
    Zr8    O50       3.09578      .   S
    N51    O52       2.22670      .   S
    Zr11   O52       3.13868  1_655   S
    N51    O53       1.76573      .   S
    Zr8    O53       2.50068      .   S
    N51    O54       1.92754      .   S
    Zr10   O54       2.84345      .   S
    N51    O55       1.91636      .   S
    Zr8    O55       2.38338      .   S
    N51    O56       2.11474      .   S
    Zr6    O56       3.07970      .   S
    N51    O57       2.13864      .   S
    Zr9    O57       3.09575  1_655   S
    N58    O59       1.03303  1_556   S
    Zr12   O59       1.96748      .   S
    N58    O60       1.01278      .   S
    Zr10   O60       1.93667      .   S
    N61    O62       1.03297  1_556   S
    Zr13   O62       1.96742      .   S
    N61    O63       1.01284      .   S
    Zr11   O63       1.93673      .   S
    N64    O65       1.03299  1_554   S
    Zr4    O65       1.96743      .   S
    N64    O66       1.01282      .   S
    Zr2    O66       1.93672      .   S
    N67    O68       2.14218      .   S
    Zr12   O68       3.09923      .   S
    N67    O69       2.23154      .   S
    Zr14   O69       3.14550      .   S
    N67    O70       1.76235      .   S
    Zr13   O70       2.49670  1_655   S
    N67    O71       1.92595  1_455   S
    Zr15   O71       2.84410      .   S
    N67    O72       1.91338      .   S
    Zr13   O72       2.37896  1_655   S
    N67    O73       2.11466      .   S
    Zr2    O73       3.08074  1_545   S
    N74    O75       2.13926      .   S
    Zr13   O75       3.09630      .   S
    N74    O76       2.22877      .   S
    Zr15   O76       3.14275      .   S
    N74    O77       1.76538      .   S
    Zr12   O77       2.49949      .   S
    N74    O78       1.92880      .   S
    Zr14   O78       2.84668      .   S
    N74    O79       1.91612      .   S
    Zr12   O79       2.38193      .   S
    N74    O80       2.11562      .   S
    Zr3    O80       3.08184  1_545   S
    N81    O82       1.02967      .   S
    Zr8    O82       1.96148      .   S
    N81    O83       1.01868      .   S
    Zr14   O83       1.94718      .   S
    N84    O85       1.02969      .   S
    Zr1    O85       1.96149      .   S
    N84    O86       1.01847      .   S
    Zr7    O86       1.94660      .   S
    N87    O88       1.02968      .   S
    Zr9    O88       1.96148      .   S
    N87    O89       1.01867      .   S
    Zr15   O89       1.94718      .   S
    N90    O91       1.03298  1_554   S
    Zr5    O91       1.96742      .   S
    N90    O92       1.01283      .   S
    Zr3    O92       1.93672      .   S
    N93    O94       1.02969      .   S
    Zr0    O94       1.96150      .   S
    N93    O95       1.01847      .   S
    Zr6    O95       1.94660      .   S
