# CIF file generated by openbabel 2.4.90, see http://openbabel.sf.net
data_I
_chemical_name_common ''
_cell_length_a 12.416
_cell_length_b 12.439
_cell_length_c 27.049
_cell_angle_alpha 90.02
_cell_angle_beta 89.986
_cell_angle_gamma 119.911
_space_group_name_H-M_alt 'P 1'
_space_group_name_Hall 'P 1'
loop_
    _symmetry_equiv_pos_as_xyz
    x,y,z
loop_
    _atom_site_label
    _atom_site_type_symbol
    _atom_site_fract_x
    _atom_site_fract_y
    _atom_site_fract_z
    _atom_site_occupancy
    H0      H    0.33458   0.06118   0.77006   1.000
    H1      H    0.31836   0.03493   0.71092   1.000
    H2      H    0.20160   0.86144   0.79141   1.000
    H3      H    0.12164   0.63898   0.78571   1.000
    H4      H    0.13403   0.57118   0.72900   1.000
    H5      H    0.03222   0.63397   0.73363   1.000
    H6      H    0.24609   0.70978   0.65478   1.000
    H7      H    0.30799   0.87167   0.65864   1.000
    H8      H    0.14432   0.77251   0.65648   1.000
    H9      H    0.72772   0.66375   0.43609   1.000
    H10     H    0.71719   0.68144   0.37711   1.000
    H11     H    0.66034   0.79610   0.45857   1.000
    H12     H    0.51837   0.87762   0.45339   1.000
    H13     H    0.43918   0.86761   0.39735   1.000
    H14     H    0.60370   0.96831   0.40179   1.000
    H15     H    0.46684   0.75809   0.32180   1.000
    H16     H    0.56605   0.69482   0.32524   1.000
    H17     H    0.63129   0.85840   0.32400   1.000
    H18     H    0.93662   0.27231   0.10457   1.000
    H19     H    0.96280   0.28122   0.04543   1.000
    H20     H    0.13682   0.33853   0.12596   1.000
    H21     H    0.36036   0.47913   0.11950   1.000
    H22     H    0.42744   0.55727   0.06309   1.000
    H23     H    0.36352   0.39300   0.06773   1.000
    H24     H    0.28800   0.53017   0.98861   1.000
    H25     H    0.12559   0.43241   0.99298   1.000
    H26     H    0.22308   0.36581   0.99073   1.000
    H27     H    0.66641   0.93784   0.76985   1.000
    H28     H    0.68253   0.96431   0.71074   1.000
    H29     H    0.79895   0.13762   0.79136   1.000
    H30     H    0.87879   0.36017   0.78573   1.000
    H31     H    0.86612   0.42788   0.72976   1.000
    H32     H    0.96823   0.36542   0.73360   1.000
    H33     H    0.75444   0.28937   0.65482   1.000
    H34     H    0.69247   0.12747   0.65863   1.000
    H35     H    0.85616   0.22658   0.65644   1.000
    H36     H    0.27206   0.33552   0.43605   1.000
    H37     H    0.28268   0.31787   0.37706   1.000
    H38     H    0.33968   0.20333   0.45849   1.000
    H39     H    0.48165   0.12180   0.45319   1.000
    H40     H    0.56078   0.13186   0.39711   1.000
    H41     H    0.39628   0.03114   0.40158   1.000
    H42     H    0.53305   0.24144   0.32165   1.000
    H43     H    0.43381   0.30468   0.32517   1.000
    H44     H    0.36859   0.14110   0.32385   1.000
    H45     H    0.06317   0.72645   0.10400   1.000
    H46     H    0.03693   0.71747   0.04546   1.000
    H47     H    0.86298   0.66029   0.12603   1.000
    H48     H    0.63945   0.51971   0.11961   1.000
    H49     H    0.57231   0.44148   0.06321   1.000
    H50     H    0.63625   0.60576   0.06784   1.000
    H51     H    0.71178   0.46850   0.98868   1.000
    H52     H    0.87417   0.56634   0.99303   1.000
    H53     H    0.77660   0.63284   0.99083   1.000
    H54     H    0.27250   0.93760   0.89755   1.000
    H55     H    0.28255   0.96433   0.95664   1.000
    H56     H    0.33942   0.13731   0.87593   1.000
    H57     H    0.48139   0.36000   0.88164   1.000
    H58     H    0.56142   0.42780   0.93767   1.000
    H59     H    0.39688   0.36502   0.93369   1.000
    H60     H    0.53441   0.28968   0.01262   1.000
    H61     H    0.43529   0.12765   0.00879   1.000
    H62     H    0.36986   0.22609   0.01081   1.000
    H63     H    0.06361   0.33517   0.23109   1.000
    H64     H    0.03531   0.31734   0.29007   1.000
    H65     H    0.86377   0.20337   0.20859   1.000
    H66     H    0.64046   0.12203   0.21403   1.000
    H67     H    0.57155   0.13190   0.27018   1.000
    H68     H    0.63530   0.03112   0.26550   1.000
    H69     H    0.70912   0.24157   0.34560   1.000
    H70     H    0.87148   0.30453   0.34200   1.000
    H71     H    0.77307   0.14100   0.34332   1.000
    H72     H    0.66397   0.72663   0.56284   1.000
    H73     H    0.68127   0.71764   0.62198   1.000
    H74     H    0.79760   0.65987   0.54137   1.000
    H75     H    0.88075   0.51901   0.54806   1.000
    H76     H    0.86896   0.44071   0.60451   1.000
    H77     H    0.96962   0.60491   0.59992   1.000
    H78     H    0.75633   0.46826   0.67880   1.000
    H79     H    0.69202   0.56634   0.67429   1.000
    H80     H    0.85601   0.63257   0.67670   1.000
    H81     H    0.72773   0.06137   0.89766   1.000
    H82     H    0.71743   0.03450   0.95674   1.000
    H83     H    0.66065   0.86165   0.87593   1.000
    H84     H    0.51860   0.63898   0.88154   1.000
    H85     H    0.43839   0.57112   0.93753   1.000
    H86     H    0.60292   0.63374   0.93360   1.000
    H87     H    0.46534   0.70917   0.01255   1.000
    H88     H    0.56457   0.87119   0.00880   1.000
    H89     H    0.62989   0.77265   0.01078   1.000
    H90     H    0.93656   0.66361   0.23090   1.000
    H91     H    0.96471   0.68163   0.28996   1.000
    H92     H    0.13638   0.79559   0.20854   1.000
    H93     H    0.35964   0.87700   0.21397   1.000
    H94     H    0.42858   0.86731   0.27012   1.000
    H95     H    0.36470   0.96797   0.26546   1.000
    H96     H    0.29099   0.75773   0.34550   1.000
    N97     N    0.33062   0.33222   0.40999   1.000
    N98     N    0.00215   0.66890   0.07817   1.000
    N99     N    0.33081   0.99855   0.92382   1.000
    N100    N    0.00180   0.33191   0.25710   1.000
    H101    H    0.12862   0.69471   0.34197   1.000
    H102    H    0.22700   0.85824   0.34325   1.000
    H103    H    0.33639   0.27252   0.56274   1.000
    H104    H    0.31906   0.28136   0.62190   1.000
    H105    H    0.20259   0.33911   0.54130   1.000
    H106    H    0.11924   0.47981   0.54820   1.000
    H107    H    0.13091   0.55790   0.60472   1.000
    H108    H    0.03043   0.39369   0.60000   1.000
    H109    H    0.24374   0.53052   0.67894   1.000
    H110    H    0.30820   0.43258   0.67430   1.000
    H111    H    0.14420   0.36619   0.67677   1.000
    C112    C    0.22580   0.77170   0.72767   1.000
    C113    C    0.21476   0.87841   0.75140   1.000
    C114    C    0.12215   0.64601   0.74523   1.000
    C115    C    0.23124   0.78201   0.67113   1.000
    C116    C    0.10133   0.88523   0.73003   1.000
    C117    C    0.54759   0.77501   0.39476   1.000
    C118    C    0.66480   0.78443   0.41850   1.000
    C119    C    0.52553   0.87838   0.41291   1.000
    C120    C    0.55342   0.77149   0.33820   1.000
    C121    C    0.78529   0.89813   0.39770   1.000
    C122    C    0.22650   0.45015   0.06176   1.000
    C123    C    0.11948   0.33370   0.08597   1.000
    C124    C    0.35240   0.47152   0.07905   1.000
    C125    C    0.21512   0.44412   0.00520   1.000
    C126    C    0.11194   0.21298   0.06509   1.000
    C127    C    0.77475   0.22740   0.72767   1.000
    C128    C    0.78596   0.12074   0.75135   1.000
    C129    C    0.87824   0.35317   0.74524   1.000
    C130    C    0.76925   0.21711   0.67113   1.000
    C131    C    0.89965   0.11425   0.73002   1.000
    C132    C    0.45234   0.22443   0.39462   1.000
    C133    C    0.33513   0.21494   0.41842   1.000
    C134    C    0.47445   0.12106   0.41270   1.000
    C135    C    0.44646   0.22800   0.33807   1.000
    C136    C    0.21470   0.10113   0.39765   1.000
    C137    C    0.77325   0.54858   0.06183   1.000
    C138    C    0.88029   0.66505   0.08604   1.000
    C139    C    0.64737   0.52725   0.07916   1.000
    C140    C    0.78461   0.55458   0.00533   1.000
    C141    C    0.88778   0.78569   0.06515   1.000
    C142    C    0.45281   0.22729   0.93972   1.000
    C143    C    0.33529   0.12050   0.91594   1.000
    C144    C    0.47480   0.35296   0.92212   1.000
    C145    C    0.44768   0.21707   0.99626   1.000
    C146    C    0.21489   0.11396   0.93709   1.000
    C147    C    0.77249   0.22439   0.27250   1.000
    C148    C    0.88003   0.21480   0.24866   1.000
    C149    C    0.64703   0.12112   0.25450   1.000
    C150    C    0.78210   0.22793   0.32910   1.000
    C151    C    0.88675   0.10089   0.26928   1.000
    C152    C    0.77558   0.54832   0.60563   1.000
    C153    C    0.78529   0.66489   0.58137   1.000
    C154    C    0.88004   0.52659   0.58850   1.000
    C155    C    0.76980   0.55438   0.66212   1.000
    C156    C    0.89879   0.78548   0.60210   1.000
    C157    C    0.54717   0.77161   0.93968   1.000
    C158    C    0.66476   0.87840   0.91595   1.000
    C159    C    0.52509   0.64593   0.92203   1.000
    C160    C    0.55217   0.78175   0.99623   1.000
    C161    C    0.78511   0.88485   0.93708   1.000
    C162    C    0.22763   0.77467   0.27250   1.000
    C163    C    0.12005   0.78413   0.24860   1.000
    C164    C    0.35305   0.87798   0.25444   1.000
    C165    C    0.21799   0.77128   0.32908   1.000
    C166    C    0.11318   0.89794   0.26925   1.000
    C167    C    0.22452   0.45051   0.60570   1.000
    C168    C    0.21492   0.33403   0.58137   1.000
    C169    C    0.11996   0.47212   0.58864   1.000
    C170    C    0.23035   0.44444   0.66219   1.000
    C171    C    0.10156   0.21325   0.60211   1.000
    S172    S    0.37754   0.78408   0.74674   1.000
    S173    S    0.40777   0.62334   0.41300   1.000
    S174    S    0.21553   0.59025   0.08054   1.000
    S175    S    0.62293   0.21478   0.74679   1.000
    S176    S    0.59213   0.37610   0.41289   1.000
    S177    S    0.78422   0.40849   0.08058   1.000
    S178    S    0.59229   0.21487   0.92070   1.000
    S179    S    0.78441   0.37619   0.25439   1.000
    S180    S    0.62465   0.40836   0.58675   1.000
    S181    S    0.40778   0.78414   0.92074   1.000
    S182    S    0.21581   0.62287   0.25436   1.000
    S183    S    0.37540   0.59061   0.58685   1.000
    N184    N    0.33215   0.00042   0.74372   1.000
    N185    N    0.66921   0.66710   0.41004   1.000
    N186    N    0.99761   0.32983   0.07813   1.000
    N187    N    0.66869   0.99864   0.74350   1.000
    N188    N    0.66743   0.66907   0.58926   1.000
    N189    N    0.66929   0.00038   0.92388   1.000
    N190    N    0.99832   0.66698   0.25707   1.000
    N191    N    0.33287   0.33000   0.58921   1.000
    O192    O    0.13278   0.98159   0.70244   1.000
    O193    O    0.99531   0.80078   0.73975   1.000
    O194    O    0.85002   0.86732   0.36953   1.000
    O195    O    0.80695   0.00000   0.40835   1.000
    O196    O    0.01552   0.14830   0.03740   1.000
    O197    O    0.19589   0.19071   0.07519   1.000
    O198    O    0.86858   0.01782   0.70250   1.000
    O199    O    0.00000   0.19905   0.73976   1.000
    O200    O    0.14998   0.13175   0.36941   1.000
    O201    O    0.19310   0.99569   0.40836   1.000
    O202    O    0.98419   0.85030   0.03746   1.000
    O203    O    0.80380   0.80794   0.07524   1.000
    O204    O    0.14985   0.01790   0.96470   1.000
    O205    O    0.19368   0.19854   0.92707   1.000
    O206    O    0.98190   0.13145   0.29760   1.000
    O207    O    0.80330   0.99546   0.25835   1.000
    O208    O    0.86761   0.85021   0.63010   1.000
    O209    O    0.00000   0.80725   0.59170   1.000
    O210    O    0.85022   0.98090   0.96477   1.000
    O211    O    0.80628   0.80025   0.92703   1.000
    O212    O    0.01800   0.86723   0.29760   1.000
    O213    O    0.19655   0.00000   0.25835   1.000
    O214    O    0.13298   0.14861   0.62990   1.000
    O215    O    0.99559   0.19119   0.59100   1.000
loop_
    _geom_bond_atom_site_label_1
    _geom_bond_atom_site_label_2
    _geom_bond_distance
    _geom_bond_site_symmetry_2
    _ccdc_geom_bond_type
    C125   C122      1.53480      .   S
    C125   H24       1.09544  1_554   S
    C125   H26       1.09893  1_554   S
    C125   H25       1.09753  1_554   S
    C140   C137      1.53314      .   S
    C140   H51       1.09599  1_554   S
    C140   H53       1.09918  1_554   S
    C140   H52       1.09833  1_554   S
    H61    C145      1.09792  1_554   S
    H88    C160      1.09819  1_554   S
    H89    C160      1.09909  1_554   S
    H62    C145      1.09951  1_554   S
    H87    C160      1.09611  1_554   S
    H60    C145      1.09597  1_554   S
    O196   C126      1.29651      .   S
    O202   C141      1.29626      .   S
    H19    N186      1.03631      .   S
    H46    N98       1.03649      .   S
    C122   C124      1.52286      .   S
    C122   S174      1.88406      .   S
    C122   C123      1.54056      .   S
    C137   C139      1.52294      .   S
    C137   S177      1.88406      .   S
    C137   C138      1.54062      .   S
    H22    C124      1.09598      .   S
    H49    C139      1.09598      .   S
    C126   O197      1.23530      .   S
    C126   C123      1.56255      .   S
    C141   O203      1.23518      .   S
    C141   C138      1.56244      .   S
    H23    C124      1.09586      .   S
    H50    C139      1.09595      .   S
    N186   C123      1.50490  1_655   S
    N186   H18       1.02790      .   S
    N98    C138      1.50485  1_455   S
    N98    H45       1.01667      .   S
    C124   H21       1.09841      .   S
    C139   H48       1.09837      .   S
    C123   H20       1.09871      .   S
    C138   H47       1.09863      .   S
    H92    C163      1.09852      .   S
    H65    C148      1.09868      .   S
    H93    C164      1.09822      .   S
    H66    C149      1.09821      .   S
    H90    N190      1.02909      .   S
    H63    N100      1.02678      .   S
    C163   N190      1.50462  1_455   S
    C163   C166      1.56313      .   S
    C163   C162      1.54044      .   S
    C148   N100      1.50449  1_655   S
    C148   C151      1.56344      .   S
    C148   C147      1.53992      .   S
    S182   C162      1.88426      .   S
    S179   C147      1.88388      .   S
    C164   H95       1.09598      .   S
    C164   H94       1.09603      .   S
    C164   C162      1.52293      .   S
    C149   H68       1.09574      .   S
    C149   H67       1.09608      .   S
    C149   C147      1.52247      .   S
    N190   H91       1.03648      .   S
    N100   H64       1.03768      .   S
    O213   C166      1.20814  1_545   S
    O207   C151      1.23513  1_565   S
    C166   O212      1.29620      .   S
    C151   O206      1.29589      .   S
    C147   C150      1.53456      .   S
    C162   C165      1.53403      .   S
    H42    C135      1.09608      .   S
    H15    C120      1.09619      .   S
    H44    C135      1.09945      .   S
    H17    C120      1.09942      .   S
    H43    C135      1.09819      .   S
    H16    C120      1.09821      .   S
    C165   H101      1.09822      .   S
    C165   H102      1.09937      .   S
    C165   H96       1.09527      .   S
    C150   H70       1.09842      .   S
    C150   H71       1.09959      .   S
    C150   H69       1.09636      .   S
    C135   C132      1.53309      .   S
    C120   C117      1.53323      .   S
    O200   C136      1.29613      .   S
    O194   C121      1.29611      .   S
    H37    N97       1.03618      .   S
    H10    N185      1.03628      .   S
    C132   C134      1.52318      .   S
    C132   S176      1.88417      .   S
    C132   C133      1.54091      .   S
    C117   C119      1.52319      .   S
    C117   S173      1.88426      .   S
    C117   C118      1.54085      .   S
    H40    C134      1.09599      .   S
    H13    C119      1.09611      .   S
    C136   O201      1.23520  1_545   S
    C136   C133      1.56341      .   S
    C121   O195      1.19205  1_565   S
    C121   C118      1.56357      .   S
    H41    C134      1.09586      .   S
    H14    C119      1.09594      .   S
    N97    C133      1.50502      .   S
    N97    H36       1.02791      .   S
    N185   C118      1.50501      .   S
    N185   H9        1.02784      .   S
    C134   H39       1.09854      .   S
    C119   H12       1.09819      .   S
    C133   H38       1.09865      .   S
    C118   H11       1.09852      .   S
    H105   C168      1.10089      .   S
    H74    C153      1.09878      .   S
    H75    C154      1.09829      .   S
    H106   C169      1.09848      .   S
    H103   N191      1.02790      .   S
    H72    N188      1.02774      .   S
    C153   N188      1.50512      .   S
    C153   C156      1.56267      .   S
    C153   C152      1.54083      .   S
    C168   N191      1.50509      .   S
    C168   C171      1.56346      .   S
    C168   C167      1.54076      .   S
    S180   C152      1.88401      .   S
    S183   C167      1.88435      .   S
    C154   H77       1.09585      .   S
    C154   H76       1.09600      .   S
    C154   C152      1.52289      .   S
    C169   H108      1.09562      .   S
    C169   H107      1.09600      .   S
    C169   C167      1.52281      .   S
    N191   H104      1.03641      .   S
    N188   H73       1.03638      .   S
    O215   C171      1.23969  1_655   S
    O209   C156      1.17989  1_455   S
    C156   O208      1.29695      .   S
    C171   O214      1.29505      .   S
    C152   C155      1.53326      .   S
    C167   C170      1.53341      .   S
    H6     C115      1.09618      .   S
    H33    C130      1.09622      .   S
    H35    C130      1.09956      .   S
    H8     C115      1.09948      .   S
    H34    C130      1.09826      .   S
    H7     C115      1.09828      .   S
    C155   H79       1.09828      .   S
    C155   H80       1.09954      .   S
    C155   H78       1.09572      .   S
    C170   H110      1.09807      .   S
    C170   H111      1.09949      .   S
    C170   H109      1.09618      .   S
    C115   C112      1.53342      .   S
    C130   C127      1.53335      .   S
    O192   C116      1.29603      .   S
    O198   C131      1.29605      .   S
    H28    N187      1.03442      .   S
    H1     N184      1.03650      .   S
    C127   C129      1.52297      .   S
    C127   S175      1.88409      .   S
    C127   C128      1.54092      .   S
    C112   C114      1.52301      .   S
    C112   S172      1.88428      .   S
    C112   C113      1.54070      .   S
    H4     C114      1.10344      .   S
    H31    C129      1.09609      .   S
    C131   O199      1.19320  1_655   S
    C131   C128      1.56376      .   S
    C116   O193      1.23542  1_455   S
    C116   C113      1.56339      .   S
    H32    C129      1.09585      .   S
    H5     C114      1.09594      .   S
    N187   C128      1.50541  1_565   S
    N187   H27       1.02945      .   S
    N184   C113      1.50494  1_545   S
    N184   H0        1.02790      .   S
    C114   H3        1.09823      .   S
    C129   H30       1.09839      .   S
    C128   H29       1.09885      .   S
    C113   H2        1.09916      .   S
    H56    C143      1.09863      .   S
    H83    C158      1.09868      .   S
    H84    C159      1.09840      .   S
    H57    C144      1.09824      .   S
    H54    N99       1.02776      .   S
    H81    N189      1.02771      .   S
    C143   N99       1.50531  1_545   S
    C143   C146      1.56422      .   S
    C143   C142      1.54080      .   S
    C158   N189      1.50533  1_565   S
    C158   C161      1.56419      .   S
    C158   C157      1.54075      .   S
    S178   C142      1.88526      .   S
    S181   C157      1.88446      .   S
    C159   H86       1.09587      .   S
    C159   H85       1.09620      .   S
    C159   C157      1.52299      .   S
    C144   H59       1.09591      .   S
    C144   H58       1.09619      .   S
    C144   C142      1.52303      .   S
    N99    H55       1.03633      .   S
    N189   H82       1.03651      .   S
    O211   C161      1.23541      .   S
    O205   C146      1.23541      .   S
    C161   O210      1.29553      .   S
    C146   O204      1.29450      .   S
    C157   C160      1.53349      .   S
    C142   C145      1.53334      .   S
