# CIF file generated by openbabel 2.4.90, see http://openbabel.sf.net
data_I
_chemical_name_common ''
_cell_length_a 12.416
_cell_length_b 12.439
_cell_length_c 27.049
_cell_angle_alpha 90.02
_cell_angle_beta 89.986
_cell_angle_gamma 119.911
_space_group_name_H-M_alt 'P 1'
_space_group_name_Hall 'P 1'
loop_
    _symmetry_equiv_pos_as_xyz
    x,y,z
loop_
    _atom_site_label
    _atom_site_type_symbol
    _atom_site_fract_x
    _atom_site_fract_y
    _atom_site_fract_z
    _atom_site_occupancy
    Zn0     Zn   0.99997   0.99935   0.33345   1.000
    Zn1     Zn   0.99992   0.99923   0.00159   1.000
    H2      H    0.33458   0.06118   0.77006   1.000
    H3      H    0.31836   0.03493   0.71092   1.000
    H4      H    0.20160   0.86144   0.79141   1.000
    H5      H    0.12164   0.63898   0.78571   1.000
    H6      H    0.13403   0.57118   0.72900   1.000
    H7      H    0.03222   0.63397   0.73363   1.000
    H8      H    0.24609   0.70978   0.65478   1.000
    H9      H    0.30799   0.87167   0.65864   1.000
    H10     H    0.14432   0.77251   0.65648   1.000
    H11     H    0.72772   0.66375   0.43609   1.000
    H12     H    0.71719   0.68144   0.37711   1.000
    H13     H    0.66034   0.79610   0.45857   1.000
    H14     H    0.51837   0.87762   0.45339   1.000
    H15     H    0.43918   0.86761   0.39735   1.000
    H16     H    0.60370   0.96831   0.40179   1.000
    H17     H    0.46684   0.75809   0.32180   1.000
    H18     H    0.56605   0.69482   0.32524   1.000
    H19     H    0.63129   0.85840   0.32400   1.000
    H20     H    0.93662   0.27231   0.10457   1.000
    H21     H    0.96280   0.28122   0.04543   1.000
    H22     H    0.13682   0.33853   0.12596   1.000
    H23     H    0.36036   0.47913   0.11950   1.000
    H24     H    0.42744   0.55727   0.06309   1.000
    H25     H    0.36352   0.39300   0.06773   1.000
    H26     H    0.28800   0.53017   0.98861   1.000
    H27     H    0.12559   0.43241   0.99298   1.000
    H28     H    0.22308   0.36581   0.99073   1.000
    H29     H    0.66641   0.93784   0.76985   1.000
    H30     H    0.68253   0.96431   0.71074   1.000
    H31     H    0.79895   0.13762   0.79136   1.000
    Zn32    Zn   0.00051   0.99939   0.66634   1.000
    H33     H    0.87879   0.36017   0.78573   1.000
    H34     H    0.86612   0.42788   0.72976   1.000
    H35     H    0.96823   0.36542   0.73360   1.000
    H36     H    0.75444   0.28937   0.65482   1.000
    H37     H    0.69247   0.12747   0.65863   1.000
    H38     H    0.85616   0.22658   0.65644   1.000
    H39     H    0.27206   0.33552   0.43605   1.000
    H40     H    0.28268   0.31787   0.37706   1.000
    H41     H    0.33968   0.20333   0.45849   1.000
    H42     H    0.48165   0.12180   0.45319   1.000
    H43     H    0.56078   0.13186   0.39711   1.000
    H44     H    0.39628   0.03114   0.40158   1.000
    H45     H    0.53305   0.24144   0.32165   1.000
    H46     H    0.43381   0.30468   0.32517   1.000
    H47     H    0.36859   0.14110   0.32385   1.000
    H48     H    0.06317   0.72645   0.10400   1.000
    H49     H    0.03693   0.71747   0.04546   1.000
    H50     H    0.86298   0.66029   0.12603   1.000
    H51     H    0.63945   0.51971   0.11961   1.000
    H52     H    0.57231   0.44148   0.06321   1.000
    H53     H    0.63625   0.60576   0.06784   1.000
    H54     H    0.71178   0.46850   0.98868   1.000
    H55     H    0.87417   0.56634   0.99303   1.000
    H56     H    0.77660   0.63284   0.99083   1.000
    H57     H    0.27250   0.93760   0.89755   1.000
    H58     H    0.28255   0.96433   0.95664   1.000
    H59     H    0.33942   0.13731   0.87593   1.000
    H60     H    0.48139   0.36000   0.88164   1.000
    H61     H    0.56142   0.42780   0.93767   1.000
    H62     H    0.39688   0.36502   0.93369   1.000
    H63     H    0.53441   0.28968   0.01262   1.000
    H64     H    0.43529   0.12765   0.00879   1.000
    H65     H    0.36986   0.22609   0.01081   1.000
    H66     H    0.06361   0.33517   0.23109   1.000
    H67     H    0.03531   0.31734   0.29007   1.000
    H68     H    0.86377   0.20337   0.20859   1.000
    H69     H    0.64046   0.12203   0.21403   1.000
    H70     H    0.57155   0.13190   0.27018   1.000
    H71     H    0.63530   0.03112   0.26550   1.000
    H72     H    0.70912   0.24157   0.34560   1.000
    H73     H    0.87148   0.30453   0.34200   1.000
    H74     H    0.77307   0.14100   0.34332   1.000
    H75     H    0.66397   0.72663   0.56284   1.000
    H76     H    0.68127   0.71764   0.62198   1.000
    H77     H    0.79760   0.65987   0.54137   1.000
    H78     H    0.88075   0.51901   0.54806   1.000
    H79     H    0.86896   0.44071   0.60451   1.000
    H80     H    0.96962   0.60491   0.59992   1.000
    H81     H    0.75633   0.46826   0.67880   1.000
    H82     H    0.69202   0.56634   0.67429   1.000
    H83     H    0.85601   0.63257   0.67670   1.000
    H84     H    0.72773   0.06137   0.89766   1.000
    H85     H    0.71743   0.03450   0.95674   1.000
    H86     H    0.66065   0.86165   0.87593   1.000
    H87     H    0.51860   0.63898   0.88154   1.000
    H88     H    0.43839   0.57112   0.93753   1.000
    H89     H    0.60292   0.63374   0.93360   1.000
    H90     H    0.46534   0.70917   0.01255   1.000
    H91     H    0.56457   0.87119   0.00880   1.000
    H92     H    0.62989   0.77265   0.01078   1.000
    H93     H    0.93656   0.66361   0.23090   1.000
    H94     H    0.96471   0.68163   0.28996   1.000
    H95     H    0.13638   0.79559   0.20854   1.000
    H96     H    0.35964   0.87700   0.21397   1.000
    H97     H    0.42858   0.86731   0.27012   1.000
    H98     H    0.36470   0.96797   0.26546   1.000
    H99     H    0.29099   0.75773   0.34550   1.000
    N100    N    0.33062   0.33222   0.40999   1.000
    N101    N    0.00215   0.66890   0.07817   1.000
    N102    N    0.33081   0.99855   0.92382   1.000
    N103    N    0.00180   0.33191   0.25710   1.000
    H104    H    0.12862   0.69471   0.34197   1.000
    H105    H    0.22700   0.85824   0.34325   1.000
    H106    H    0.33639   0.27252   0.56274   1.000
    H107    H    0.31906   0.28136   0.62190   1.000
    H108    H    0.20259   0.33911   0.54130   1.000
    H109    H    0.11924   0.47981   0.54820   1.000
    H110    H    0.13091   0.55790   0.60472   1.000
    H111    H    0.03043   0.39369   0.60000   1.000
    H112    H    0.24374   0.53052   0.67894   1.000
    H113    H    0.30820   0.43258   0.67430   1.000
    H114    H    0.14420   0.36619   0.67677   1.000
    Pt115   Pt   0.50035   0.99944   0.74488   1.000
    Pt116   Pt   0.49991   0.49968   0.41106   1.000
    Pt117   Pt   0.99987   0.49937   0.07904   1.000
    Pt118   Pt   0.50006   0.99950   0.92268   1.000
    Pt119   Pt   0.00010   0.49948   0.25616   1.000
    Pt120   Pt   0.50010   0.49955   0.58834   1.000
    Au121   Au   0.38954   0.77798   0.83374   1.000
    Au122   Au   0.38799   0.60985   0.49992   1.000
    Au123   Au   0.22218   0.60942   0.16746   1.000
    Au124   Au   0.61078   0.22099   0.83379   1.000
    Au125   Au   0.61201   0.38937   0.49981   1.000
    Au126   Au   0.77778   0.38946   0.16750   1.000
    C127    C    0.22580   0.77170   0.72767   1.000
    C128    C    0.21476   0.87841   0.75140   1.000
    C129    C    0.12215   0.64601   0.74523   1.000
    C130    C    0.23124   0.78201   0.67113   1.000
    C131    C    0.10133   0.88523   0.73003   1.000
    C132    C    0.54759   0.77501   0.39476   1.000
    C133    C    0.66480   0.78443   0.41850   1.000
    C134    C    0.52553   0.87838   0.41291   1.000
    C135    C    0.55342   0.77149   0.33820   1.000
    C136    C    0.78529   0.89813   0.39770   1.000
    C137    C    0.22650   0.45015   0.06176   1.000
    C138    C    0.11948   0.33370   0.08597   1.000
    C139    C    0.35240   0.47152   0.07905   1.000
    C140    C    0.21512   0.44412   0.00520   1.000
    C141    C    0.11194   0.21298   0.06509   1.000
    C142    C    0.77475   0.22740   0.72767   1.000
    C143    C    0.78596   0.12074   0.75135   1.000
    C144    C    0.87824   0.35317   0.74524   1.000
    C145    C    0.76925   0.21711   0.67113   1.000
    C146    C    0.89965   0.11425   0.73002   1.000
    C147    C    0.45234   0.22443   0.39462   1.000
    C148    C    0.33513   0.21494   0.41842   1.000
    C149    C    0.47445   0.12106   0.41270   1.000
    C150    C    0.44646   0.22800   0.33807   1.000
    C151    C    0.21470   0.10113   0.39765   1.000
    C152    C    0.77325   0.54858   0.06183   1.000
    C153    C    0.88029   0.66505   0.08604   1.000
    C154    C    0.64737   0.52725   0.07916   1.000
    C155    C    0.78461   0.55458   0.00533   1.000
    C156    C    0.88778   0.78569   0.06515   1.000
    C157    C    0.45281   0.22729   0.93972   1.000
    C158    C    0.33529   0.12050   0.91594   1.000
    C159    C    0.47480   0.35296   0.92212   1.000
    C160    C    0.44768   0.21707   0.99626   1.000
    C161    C    0.21489   0.11396   0.93709   1.000
    C162    C    0.77249   0.22439   0.27250   1.000
    C163    C    0.88003   0.21480   0.24866   1.000
    C164    C    0.64703   0.12112   0.25450   1.000
    C165    C    0.78210   0.22793   0.32910   1.000
    C166    C    0.88675   0.10089   0.26928   1.000
    C167    C    0.77558   0.54832   0.60563   1.000
    C168    C    0.78529   0.66489   0.58137   1.000
    C169    C    0.88004   0.52659   0.58850   1.000
    C170    C    0.76980   0.55438   0.66212   1.000
    C171    C    0.89879   0.78548   0.60210   1.000
    C172    C    0.54717   0.77161   0.93968   1.000
    C173    C    0.66476   0.87840   0.91595   1.000
    C174    C    0.52509   0.64593   0.92203   1.000
    C175    C    0.55217   0.78175   0.99623   1.000
    C176    C    0.78511   0.88485   0.93708   1.000
    C177    C    0.22763   0.77467   0.27250   1.000
    C178    C    0.12005   0.78413   0.24860   1.000
    C179    C    0.35305   0.87798   0.25444   1.000
    C180    C    0.21799   0.77128   0.32908   1.000
    C181    C    0.11318   0.89794   0.26925   1.000
    C182    C    0.22452   0.45051   0.60570   1.000
    C183    C    0.21492   0.33403   0.58137   1.000
    C184    C    0.11996   0.47212   0.58864   1.000
    C185    C    0.23035   0.44444   0.66219   1.000
    C186    C    0.10156   0.21325   0.60211   1.000
    S187    S    0.37754   0.78408   0.74674   1.000
    S188    S    0.40777   0.62334   0.41300   1.000
    S189    S    0.21553   0.59025   0.08054   1.000
    S190    S    0.62293   0.21478   0.74679   1.000
    S191    S    0.59213   0.37610   0.41289   1.000
    S192    S    0.78422   0.40849   0.08058   1.000
    S193    S    0.59229   0.21487   0.92070   1.000
    S194    S    0.78441   0.37619   0.25439   1.000
    S195    S    0.62465   0.40836   0.58675   1.000
    S196    S    0.40778   0.78414   0.92074   1.000
    S197    S    0.21581   0.62287   0.25436   1.000
    S198    S    0.37540   0.59061   0.58685   1.000
    N199    N    0.33215   0.00042   0.74372   1.000
    N200    N    0.66921   0.66710   0.41004   1.000
    N201    N    0.99761   0.32983   0.07813   1.000
    N202    N    0.66869   0.99864   0.74350   1.000
    N203    N    0.66743   0.66907   0.58926   1.000
    N204    N    0.66929   0.00038   0.92388   1.000
    N205    N    0.99832   0.66698   0.25707   1.000
    N206    N    0.33287   0.33000   0.58921   1.000
    O207    O    0.13278   0.98159   0.70244   1.000
    O208    O    0.99531   0.80078   0.73975   1.000
    O209    O    0.85002   0.86732   0.36953   1.000
    O210    O    0.80695   0.00000   0.40835   1.000
    O211    O    0.01552   0.14830   0.03740   1.000
    O212    O    0.19589   0.19071   0.07519   1.000
    O213    O    0.86858   0.01782   0.70250   1.000
    O214    O    0.00000   0.19905   0.73976   1.000
    O215    O    0.14998   0.13175   0.36941   1.000
    O216    O    0.19310   0.99569   0.40836   1.000
    O217    O    0.98419   0.85030   0.03746   1.000
    O218    O    0.80380   0.80794   0.07524   1.000
    O219    O    0.14985   0.01790   0.96470   1.000
    O220    O    0.19368   0.19854   0.92707   1.000
    O221    O    0.98190   0.13145   0.29760   1.000
    O222    O    0.80330   0.99546   0.25835   1.000
    O223    O    0.86761   0.85021   0.63010   1.000
    O224    O    0.00000   0.80725   0.59170   1.000
    O225    O    0.85022   0.98090   0.96477   1.000
    O226    O    0.80628   0.80025   0.92703   1.000
    O227    O    0.01800   0.86723   0.29760   1.000
    O228    O    0.19655   0.00000   0.25835   1.000
    O229    O    0.13298   0.14861   0.62990   1.000
    O230    O    0.99559   0.19119   0.59100   1.000
loop_
    _geom_bond_atom_site_label_1
    _geom_bond_atom_site_label_2
    _geom_bond_distance
    _geom_bond_site_symmetry_2
    _ccdc_geom_bond_type
    Zn1    O211      2.01373  1_665   S
    Zn1    O217      2.01283      .   S
    Zn1    O219      2.02063  1_664   S
    Zn1    O225      2.01906  1_554   S
    C140   C137      1.53480      .   S
    C140   H26       1.09544  1_554   S
    C140   H28       1.09893  1_554   S
    C140   H27       1.09753  1_554   S
    C155   C152      1.53314      .   S
    C155   H54       1.09599  1_554   S
    C155   H56       1.09918  1_554   S
    C155   H55       1.09833  1_554   S
    H64    C160      1.09792  1_554   S
    H91    C175      1.09819  1_554   S
    H92    C175      1.09909  1_554   S
    H65    C160      1.09951  1_554   S
    H90    C175      1.09611  1_554   S
    H63    C160      1.09597  1_554   S
    O211   C141      1.29651      .   S
    O217   C156      1.29626      .   S
    H21    N201      1.03631      .   S
    H49    N101      1.03649      .   S
    C137   C139      1.52286      .   S
    C137   S189      1.88406      .   S
    C137   C138      1.54056      .   S
    C152   C154      1.52294      .   S
    C152   S192      1.88406      .   S
    C152   C153      1.54062      .   S
    H24    C139      1.09598      .   S
    H52    C154      1.09598      .   S
    C141   O212      1.23530      .   S
    C141   C138      1.56255      .   S
    C156   O218      1.23518      .   S
    C156   C153      1.56244      .   S
    H25    C139      1.09586      .   S
    H53    C154      1.09595      .   S
    N201   Pt117     2.09503      .   S
    N201   C138      1.50490  1_655   S
    N201   H20       1.02790      .   S
    N101   Pt117     2.09497  1_455   S
    N101   C153      1.50485  1_455   S
    N101   H48       1.01667      .   S
    Pt117  S189      2.33029  1_655   S
    Pt117  S192      2.33022      .   S
    C139   H23       1.09841      .   S
    C154   H51       1.09837      .   S
    S189   Au123     2.36039      .   S
    S192   Au126     2.36041      .   S
    C138   H22       1.09871      .   S
    C153   H50       1.09863      .   S
    Au123  S197      2.36056      .   S
    Au126  S194      2.36046      .   S
    H95    C178      1.09852      .   S
    H68    C163      1.09868      .   S
    H96    C179      1.09822      .   S
    H69    C164      1.09821      .   S
    H93    N205      1.02909      .   S
    H66    N103      1.02678      .   S
    C178   N205      1.50462  1_455   S
    C178   C181      1.56313      .   S
    C178   C177      1.54044      .   S
    C163   N103      1.50449  1_655   S
    C163   C166      1.56344      .   S
    C163   C162      1.53992      .   S
    S197   Pt119     2.33054      .   S
    S197   C177      1.88426      .   S
    S194   Pt119     2.33024  1_655   S
    S194   C162      1.88388      .   S
    C179   H98       1.09598      .   S
    C179   H97       1.09603      .   S
    C179   C177      1.52293      .   S
    C164   H71       1.09574      .   S
    C164   H70       1.09608      .   S
    C164   C162      1.52247      .   S
    Pt119  N205      2.09484  1_455   S
    Pt119  N103      2.09512      .   S
    N205   H94       1.03648      .   S
    N103   H67       1.03768      .   S
    O228   C181      1.20814  1_545   S
    O222   C166      1.23513  1_565   S
    C181   O227      1.29620      .   S
    C166   O221      1.29589      .   S
    C162   C165      1.53456      .   S
    C177   C180      1.53403      .   S
    O227   Zn0       2.01420  1_455   S
    O221   Zn0       2.01483  1_545   S
    H45    C150      1.09608      .   S
    H17    C135      1.09619      .   S
    H47    C150      1.09945      .   S
    H19    C135      1.09942      .   S
    H46    C150      1.09819      .   S
    H18    C135      1.09821      .   S
    C180   H104      1.09822      .   S
    C180   H105      1.09937      .   S
    C180   H99       1.09527      .   S
    C165   H73       1.09842      .   S
    C165   H74       1.09959      .   S
    C165   H72       1.09636      .   S
    Zn0    O215      2.01690  1_665   S
    Zn0    O209      2.01666      .   S
    C150   C147      1.53309      .   S
    C135   C132      1.53323      .   S
    O215   C151      1.29613      .   S
    O209   C136      1.29611      .   S
    H40    N100      1.03618      .   S
    H12    N200      1.03628      .   S
    C147   C149      1.52318      .   S
    C147   S191      1.88417      .   S
    C147   C148      1.54091      .   S
    C132   C134      1.52319      .   S
    C132   S188      1.88426      .   S
    C132   C133      1.54085      .   S
    H43    C149      1.09599      .   S
    H15    C134      1.09611      .   S
    C151   O216      1.23520  1_545   S
    C151   C148      1.56341      .   S
    C136   O210      1.19205  1_565   S
    C136   C133      1.56357      .   S
    H44    C149      1.09586      .   S
    H16    C134      1.09594      .   S
    N100   Pt116     2.09558      .   S
    N100   C148      1.50502      .   S
    N100   H39       1.02791      .   S
    N200   Pt116     2.09534      .   S
    N200   C133      1.50501      .   S
    N200   H11       1.02784      .   S
    Pt116  S191      2.33062      .   S
    Pt116  S188      2.33070      .   S
    C149   H42       1.09854      .   S
    S191   Au125     2.36120      .   S
    C134   H14       1.09819      .   S
    S188   Au122     2.36115      .   S
    C148   H41       1.09865      .   S
    C133   H13       1.09852      .   S
    Au125  S195      2.36082      .   S
    Au122  S198      2.36084      .   S
    H108   C183      1.10089      .   S
    H77    C168      1.09878      .   S
    H78    C169      1.09829      .   S
    H109   C184      1.09848      .   S
    H106   N206      1.02790      .   S
    H75    N203      1.02774      .   S
    C168   N203      1.50512      .   S
    C168   C171      1.56267      .   S
    C168   C167      1.54083      .   S
    C183   N206      1.50509      .   S
    C183   C186      1.56346      .   S
    C183   C182      1.54076      .   S
    S195   Pt120     2.33016      .   S
    S195   C167      1.88401      .   S
    S198   Pt120     2.33036      .   S
    S198   C182      1.88435      .   S
    Pt120  N206      2.09583      .   S
    Pt120  N203      2.09619      .   S
    C169   H80       1.09585      .   S
    C169   H79       1.09600      .   S
    C169   C167      1.52289      .   S
    C184   H111      1.09562      .   S
    C184   H110      1.09600      .   S
    C184   C182      1.52281      .   S
    N206   H107      1.03641      .   S
    N203   H76       1.03638      .   S
    O230   C186      1.23969  1_655   S
    O224   C171      1.17989  1_455   S
    C171   O223      1.29695      .   S
    C186   O229      1.29505      .   S
    C167   C170      1.53326      .   S
    C182   C185      1.53341      .   S
    O229   Zn32      2.01936  1_545   S
    O223   Zn32      2.01812  1_655   S
    H8     C130      1.09618      .   S
    H36    C145      1.09622      .   S
    H38    C145      1.09956      .   S
    H10    C130      1.09948      .   S
    H37    C145      1.09826      .   S
    H9     C130      1.09828      .   S
    C170   H82       1.09828      .   S
    C170   H83       1.09954      .   S
    C170   H81       1.09572      .   S
    C185   H113      1.09807      .   S
    C185   H114      1.09949      .   S
    C185   H112      1.09618      .   S
    Zn32   O207      2.01576      .   S
    Zn32   O213      2.01637  1_465   S
    C130   C127      1.53342      .   S
    C145   C142      1.53335      .   S
    O207   C131      1.29603      .   S
    O213   C146      1.29605      .   S
    H30    N202      1.03442      .   S
    H3     N199      1.03650      .   S
    C142   C144      1.52297      .   S
    C142   S190      1.88409      .   S
    C142   C143      1.54092      .   S
    C127   C129      1.52301      .   S
    C127   S187      1.88428      .   S
    C127   C128      1.54070      .   S
    H6     C129      1.10344      .   S
    H34    C144      1.09609      .   S
    C146   O214      1.19320  1_655   S
    C146   C143      1.56376      .   S
    C131   O208      1.23542  1_455   S
    C131   C128      1.56339      .   S
    H35    C144      1.09585      .   S
    H7     C129      1.09594      .   S
    N202   Pt115     2.09539      .   S
    N202   C143      1.50541  1_565   S
    N202   H29       1.02945      .   S
    N199   Pt115     2.09474  1_545   S
    N199   C128      1.50494  1_545   S
    N199   H2        1.02790      .   S
    Pt115  S187      2.33032      .   S
    Pt115  S190      2.32986  1_565   S
    C129   H5        1.09823      .   S
    C144   H33       1.09839      .   S
    S187   Au121     2.36164      .   S
    S190   Au124     2.36175      .   S
    C143   H31       1.09885      .   S
    C128   H4        1.09916      .   S
    Au121  S196      2.36175      .   S
    Au124  S193      2.35952      .   S
    H59    C158      1.09863      .   S
    H86    C173      1.09868      .   S
    H87    C174      1.09840      .   S
    H60    C159      1.09824      .   S
    H57    N102      1.02776      .   S
    H84    N204      1.02771      .   S
    C158   N102      1.50531  1_545   S
    C158   C161      1.56422      .   S
    C158   C157      1.54080      .   S
    C173   N204      1.50533  1_565   S
    C173   C176      1.56419      .   S
    C173   C172      1.54075      .   S
    S193   Pt118     2.33054  1_545   S
    S193   C157      1.88526      .   S
    S196   Pt118     2.33043      .   S
    S196   C172      1.88446      .   S
    C174   H89       1.09587      .   S
    C174   H88       1.09620      .   S
    C174   C172      1.52299      .   S
    C159   H62       1.09591      .   S
    C159   H61       1.09619      .   S
    C159   C157      1.52303      .   S
    Pt118  N102      2.09574      .   S
    Pt118  N204      2.09599  1_565   S
    N102   H58       1.03633      .   S
    N204   H85       1.03651      .   S
    O226   C176      1.23541      .   S
    O220   C161      1.23541      .   S
    C176   O225      1.29553      .   S
    C161   O219      1.29450      .   S
    C172   C175      1.53349      .   S
    C157   C160      1.53334      .   S
