# CIF file generated by openbabel 2.4.90, see http://openbabel.sf.net
data_I
_chemical_name_common ''
_cell_length_a 12.416
_cell_length_b 12.439
_cell_length_c 27.049
_cell_angle_alpha 90.02
_cell_angle_beta 89.986
_cell_angle_gamma 119.911
_space_group_name_H-M_alt 'P 1'
_space_group_name_Hall 'P 1'
loop_
    _symmetry_equiv_pos_as_xyz
    x,y,z
loop_
    _atom_site_label
    _atom_site_type_symbol
    _atom_site_fract_x
    _atom_site_fract_y
    _atom_site_fract_z
    _atom_site_occupancy
    N0      N    0.19855   0.81588   0.72493   1.000
    N1      N    0.18321   0.80149   0.27505   1.000
    N2      N    0.38097   0.19745   0.39201   1.000
    N3      N    0.81785   0.61976   0.05931   1.000
    N4      N    0.38143   0.18317   0.94238   1.000
    N5      N    0.19794   0.37936   0.60810   1.000
    N6      N    0.80179   0.18331   0.72494   1.000
    N7      N    0.81686   0.19734   0.27510   1.000
    N8      N    0.80198   0.61947   0.60811   1.000
    N9      N    0.61896   0.80174   0.39213   1.000
    N10     N    0.18190   0.37897   0.05927   1.000
    N11     N    0.61852   0.81570   0.94236   1.000
    Zr12    Zr   0.50035   0.99944   0.74488   1.000
    Zr13    Zr   0.00051   0.99939   0.66634   1.000
    O14     O    0.93434   0.04768   0.68551   1.000
    O15     O    0.06642   0.11304   0.64723   1.000
    O16     O    0.93426   0.88576   0.64725   1.000
    O17     O    0.06655   0.95129   0.68550   1.000
    Zr18    Zr   0.99997   0.99935   0.33345   1.000
    O19     O    0.95194   0.06536   0.31438   1.000
    O20     O    0.04804   0.93337   0.31437   1.000
    O21     O    0.11397   0.06543   0.35259   1.000
    O22     O    0.88597   0.93345   0.35263   1.000
    Zr23    Zr   0.99992   0.99923   0.00159   1.000
    O24     O    0.88586   0.95105   0.98218   1.000
    O25     O    0.04736   0.11280   0.02049   1.000
    O26     O    0.95243   0.88574   0.02050   1.000
    O27     O    0.11404   0.04755   0.98218   1.000
    Zr28    Zr   0.49991   0.49968   0.41106   1.000
    Zr29    Zr   0.99987   0.49937   0.07904   1.000
    Zr30    Zr   0.50006   0.99950   0.92268   1.000
    Zr31    Zr   0.00010   0.49948   0.25616   1.000
    Zr32    Zr   0.50010   0.49955   0.58834   1.000
    Zr33    Zr   0.38954   0.77798   0.83374   1.000
    O34     O    0.44906   0.78818   0.87177   1.000
    O35     O    0.34029   0.78822   0.79566   1.000
    Zr36    Zr   0.38799   0.60985   0.49992   1.000
    O37     O    0.33891   0.54982   0.53783   1.000
    O38     O    0.44821   0.65951   0.46211   1.000
    Zr39    Zr   0.22218   0.60942   0.16746   1.000
    O40     O    0.21164   0.65912   0.20522   1.000
    O41     O    0.21128   0.54941   0.12955   1.000
    Zr42    Zr   0.61078   0.22099   0.83379   1.000
    O43     O    0.66005   0.21080   0.79570   1.000
    O44     O    0.55113   0.21077   0.87180   1.000
    Zr45    Zr   0.61201   0.38937   0.49981   1.000
    O46     O    0.55177   0.33973   0.46200   1.000
    O47     O    0.66109   0.44927   0.53775   1.000
    Zr48    Zr   0.77778   0.38946   0.16750   1.000
    O49     O    0.78838   0.33977   0.20526   1.000
    O50     O    0.78861   0.44941   0.12959   1.000
    O51     O    0.53449   0.94015   0.92755   1.000
    O52     O    0.46559   0.05882   0.92755   1.000
    O53     O    0.05925   0.59316   0.26083   1.000
    O54     O    0.94091   0.40576   0.26084   1.000
    O55     O    0.40631   0.46460   0.59324   1.000
    O56     O    0.59381   0.53443   0.59324   1.000
    O57     O    0.59389   0.05882   0.73993   1.000
    O58     O    0.40671   0.94015   0.73994   1.000
    O59     O    0.46536   0.40593   0.40635   1.000
    O60     O    0.05872   0.46435   0.07414   1.000
    O61     O    0.53450   0.59339   0.40638   1.000
    O62     O    0.94103   0.53438   0.07415   1.000
loop_
    _geom_bond_atom_site_label_1
    _geom_bond_atom_site_label_2
    _geom_bond_distance
    _geom_bond_site_symmetry_2
    _ccdc_geom_bond_type
    Zr13   O14       1.34025  1_465   S
    N6     O14       3.07564      .   S
    Zr13   O15       1.33488  1_565   S
    N5     O15       3.06064      .   S
    Zr13   O16       1.33457  1_455   S
    N8     O16       3.05994      .   S
    Zr13   O17       1.33745      .   S
    N0     O17       3.06846      .   S
    Zr18   O19       1.33595  1_565   S
    N7     O19       3.06342      .   S
    Zr18   O20       1.33569  1_655   S
    N1     O20       3.06311      .   S
    Zr18   O21       1.33669  1_665   S
    N2     O21       3.06512      .   S
    Zr18   O22       1.33690      .   S
    N9     O22       3.06582      .   S
    Zr23   O24       1.33944  1_554   S
    N11    O24       3.07231      .   S
    Zr23   O25       1.33181  1_665   S
    N10    O25       3.05546      .   S
    Zr23   O26       1.33130      .   S
    N3     O26       3.05432      .   S
    Zr23   O27       1.33985  1_664   S
    N4     O27       3.07263      .   S
    Zr33   O34       1.23585      .   S
    N11    O34       2.73371      .   S
    Zr33   O35       1.23651      .   S
    N0     O35       2.73534      .   S
    Zr36   O37       1.23571      .   S
    N5     O37       2.73355      .   S
    Zr36   O38       1.23535      .   S
    N9     O38       2.73262      .   S
    Zr39   O40       1.23397      .   S
    N1     O40       2.72938      .   S
    Zr39   O41       1.23527      .   S
    N10    O41       2.73270      .   S
    Zr42   O43       1.23640      .   S
    N6     O43       2.73411      .   S
    Zr42   O44       1.23593      .   S
    N4     O44       2.73470      .   S
    Zr45   O46       1.23542      .   S
    N2     O46       2.73297      .   S
    Zr45   O47       1.23561      .   S
    N8     O47       2.73306      .   S
    Zr48   O49       1.23460      .   S
    N7     O49       2.73131      .   S
    Zr48   O50       1.23545      .   S
    N3     O50       2.73315      .   S
    Zr30   O51       1.02958      .   S
    N11    O51       2.29279      .   S
    Zr30   O52       1.02948  1_565   S
    N4     O52       2.29271      .   S
    Zr31   O53       1.02943      .   S
    N1     O53       2.29220      .   S
    Zr31   O54       1.02987  1_455   S
    N7     O54       2.29358      .   S
    Zr32   O55       1.02838      .   S
    N5     O55       2.28982      .   S
    Zr32   O56       1.02774      .   S
    N8     O56       2.28795      .   S
    Zr12   O57       1.02801  1_565   S
    N6     O57       2.28879      .   S
    Zr12   O58       1.02877      .   S
    N0     O58       2.29125      .   S
    N2     O59       2.29415      .   S
    Zr28   O59       1.03013      .   S
    N10    O60       2.29091      .   S
    Zr29   O60       1.02876  1_655   S
    Zr28   O61       1.02954      .   S
    N9     O61       2.29244      .   S
    Zr29   O62       1.02875      .   S
    N3     O62       2.29096      .   S
