# CIF file generated by openbabel 2.4.90, see http://openbabel.sf.net
data_I
_chemical_name_common ''
_cell_length_a 12.416
_cell_length_b 12.439
_cell_length_c 27.049
_cell_angle_alpha 90.02
_cell_angle_beta 89.986
_cell_angle_gamma 119.911
_space_group_name_H-M_alt 'P 1'
_space_group_name_Hall 'P 1'
loop_
    _symmetry_equiv_pos_as_xyz
    x,y,z
loop_
    _atom_site_label
    _atom_site_type_symbol
    _atom_site_fract_x
    _atom_site_fract_y
    _atom_site_fract_z
    _atom_site_occupancy
    N0      N    0.19855   0.81588   0.72493   1.000
    N1      N    0.18321   0.80149   0.27505   1.000
    N2      N    0.38097   0.19745   0.39201   1.000
    N3      N    0.81785   0.61976   0.05931   1.000
    N4      N    0.38143   0.18317   0.94238   1.000
    N5      N    0.19794   0.37936   0.60810   1.000
    N6      N    0.80179   0.18331   0.72494   1.000
    N7      N    0.81686   0.19734   0.27510   1.000
    N8      N    0.80198   0.61947   0.60811   1.000
    N9      N    0.61896   0.80174   0.39213   1.000
    N10     N    0.18190   0.37897   0.05927   1.000
    N11     N    0.61852   0.81570   0.94236   1.000
    Zr12    Zr   0.50035   0.99944   0.74488   1.000
    O13     O    0.59103   0.07233   0.74013   1.000
    O14     O    0.59675   0.04531   0.73972   1.000
    O15     O    0.40955   0.92663   0.74013   1.000
    O16     O    0.40388   0.95367   0.73975   1.000
    Zr17    Zr   0.00051   0.99939   0.66634   1.000
    O18     O    0.93434   0.04768   0.68551   1.000
    O19     O    0.06642   0.11304   0.64723   1.000
    O20     O    0.93426   0.88576   0.64725   1.000
    O21     O    0.06655   0.95129   0.68550   1.000
    Zr22    Zr   0.99997   0.99935   0.33345   1.000
    O23     O    0.95194   0.06536   0.31438   1.000
    O24     O    0.04804   0.93337   0.31437   1.000
    O25     O    0.11397   0.06543   0.35259   1.000
    O26     O    0.88597   0.93345   0.35263   1.000
    Zr27    Zr   0.99992   0.99923   0.00159   1.000
    O28     O    0.88586   0.95105   0.98218   1.000
    O29     O    0.04736   0.11280   0.02049   1.000
    O30     O    0.95243   0.88574   0.02050   1.000
    O31     O    0.11404   0.04755   0.98218   1.000
    Zr32    Zr   0.49991   0.49968   0.41106   1.000
    O33     O    0.48170   0.40868   0.40653   1.000
    O34     O    0.44901   0.40319   0.40616   1.000
    O35     O    0.55083   0.59612   0.40620   1.000
    O36     O    0.51816   0.59065   0.40657   1.000
    Zr37    Zr   0.99987   0.49937   0.07904   1.000
    O38     O    0.04510   0.44807   0.07398   1.000
    O39     O    0.07234   0.48063   0.07429   1.000
    O40     O    0.95465   0.55065   0.07400   1.000
    O41     O    0.92741   0.51810   0.07430   1.000
    Zr42    Zr   0.50006   0.99950   0.92268   1.000
    O43     O    0.55083   0.95366   0.92775   1.000
    O44     O    0.51814   0.92663   0.92736   1.000
    O45     O    0.48193   0.07234   0.92736   1.000
    O46     O    0.44925   0.04530   0.92775   1.000
    Zr47    Zr   0.00010   0.49948   0.25616   1.000
    O48     O    0.95450   0.40300   0.26101   1.000
    O49     O    0.92733   0.40853   0.26067   1.000
    O50     O    0.07284   0.59041   0.26066   1.000
    O51     O    0.04565   0.59592   0.26100   1.000
    Zr52    Zr   0.50010   0.49955   0.58834   1.000
    O53     O    0.40365   0.44831   0.59339   1.000
    O54     O    0.40897   0.48089   0.59309   1.000
    O55     O    0.59649   0.55072   0.59340   1.000
    O56     O    0.59114   0.51813   0.59308   1.000
    Zr57    Zr   0.38954   0.77798   0.83374   1.000
    O58     O    0.44906   0.78818   0.87177   1.000
    O59     O    0.34029   0.78822   0.79566   1.000
    Zr60    Zr   0.38799   0.60985   0.49992   1.000
    O61     O    0.33891   0.54982   0.53783   1.000
    O62     O    0.44821   0.65951   0.46211   1.000
    Zr63    Zr   0.22218   0.60942   0.16746   1.000
    O64     O    0.21164   0.65912   0.20522   1.000
    O65     O    0.21128   0.54941   0.12955   1.000
    Zr66    Zr   0.61078   0.22099   0.83379   1.000
    O67     O    0.66005   0.21080   0.79570   1.000
    O68     O    0.55113   0.21077   0.87180   1.000
    Zr69    Zr   0.61201   0.38937   0.49981   1.000
    O70     O    0.55177   0.33973   0.46200   1.000
    O71     O    0.66109   0.44927   0.53775   1.000
    Zr72    Zr   0.77778   0.38946   0.16750   1.000
    O73     O    0.78838   0.33977   0.20526   1.000
    O74     O    0.78861   0.44941   0.12959   1.000
loop_
    _geom_bond_atom_site_label_1
    _geom_bond_atom_site_label_2
    _geom_bond_distance
    _geom_bond_site_symmetry_2
    _ccdc_geom_bond_type
    Zr12   O13       1.04311  1_565   S
    N6     O13       2.30632      .   S
    Zr12   O14       1.04714  1_565   S
    N6     O14       2.28670      .   S
    Zr12   O15       1.04380      .   S
    N0     O15       2.30886      .   S
    Zr12   O16       1.04792      .   S
    N0     O16       2.28906      .   S
    Zr17   O18       1.34025  1_465   S
    N6     O18       3.07564      .   S
    Zr17   O19       1.33488  1_565   S
    N5     O19       3.06064      .   S
    Zr17   O20       1.33457  1_455   S
    N8     O20       3.05994      .   S
    Zr17   O21       1.33745      .   S
    N0     O21       3.06846      .   S
    Zr22   O23       1.33595  1_565   S
    N7     O23       3.06342      .   S
    Zr22   O24       1.33569  1_655   S
    N1     O24       3.06311      .   S
    Zr22   O25       1.33669  1_665   S
    N2     O25       3.06512      .   S
    Zr22   O26       1.33690      .   S
    N9     O26       3.06582      .   S
    Zr27   O28       1.33944  1_554   S
    N11    O28       3.07231      .   S
    Zr27   O29       1.33181  1_665   S
    N10    O29       3.05546      .   S
    Zr27   O30       1.33130      .   S
    N3     O30       3.05432      .   S
    Zr27   O31       1.33985  1_664   S
    N4     O31       3.07263      .   S
    Zr32   O33       1.04513      .   S
    N2     O33       2.31173      .   S
    Zr32   O34       1.04927      .   S
    N2     O34       2.29196      .   S
    Zr32   O35       1.04872      .   S
    N9     O35       2.29020      .   S
    Zr32   O36       1.04452      .   S
    N9     O36       2.31008      .   S
    Zr37   O38       1.04795  1_655   S
    N10    O38       2.28867      .   S
    Zr37   O39       1.04375  1_655   S
    N10    O39       2.30855      .   S
    Zr37   O40       1.04794      .   S
    N3     O40       2.28872      .   S
    Zr37   O41       1.04374      .   S
    N3     O41       2.30861      .   S
    Zr42   O43       1.04874      .   S
    N11    O43       2.29057      .   S
    Zr42   O44       1.04455      .   S
    N11    O44       2.31040      .   S
    Zr42   O45       1.04444  1_565   S
    N4     O45       2.31035      .   S
    Zr42   O46       1.04867  1_565   S
    N4     O46       2.29046      .   S
    Zr47   O48       1.04903  1_455   S
    N7     O48       2.29135      .   S
    Zr47   O49       1.04484  1_455   S
    N7     O49       2.31120      .   S
    Zr47   O50       1.04449      .   S
    N1     O50       2.30974      .   S
    Zr47   O51       1.04852      .   S
    N1     O51       2.29007      .   S
    Zr52   O53       1.04766      .   S
    N5     O53       2.28751      .   S
    Zr52   O54       1.04333      .   S
    N5     O54       2.30755      .   S
    Zr52   O55       1.04709      .   S
    N8     O55       2.28559      .   S
    Zr52   O56       1.04264      .   S
    N8     O56       2.30575      .   S
    Zr57   O58       1.23585      .   S
    N11    O58       2.73371      .   S
    Zr57   O59       1.23651      .   S
    N0     O59       2.73534      .   S
    Zr60   O61       1.23571      .   S
    N5     O61       2.73355      .   S
    Zr60   O62       1.23535      .   S
    N9     O62       2.73262      .   S
    Zr63   O64       1.23397      .   S
    N1     O64       2.72938      .   S
    Zr63   O65       1.23527      .   S
    N10    O65       2.73270      .   S
    Zr66   O67       1.23640      .   S
    N6     O67       2.73411      .   S
    Zr66   O68       1.23593      .   S
    N4     O68       2.73470      .   S
    Zr69   O70       1.23542      .   S
    N2     O70       2.73297      .   S
    Zr69   O71       1.23561      .   S
    N8     O71       2.73306      .   S
    Zr72   O73       1.23460      .   S
    N7     O73       2.73131      .   S
    Zr72   O74       1.23545      .   S
    N3     O74       2.73315      .   S
