# CIF file generated by openbabel 2.4.90, see http://openbabel.sf.net
data_I
_chemical_name_common ''
_cell_length_a 12.119
_cell_length_b 14.542
_cell_length_c 15.229
_cell_angle_alpha 90.002
_cell_angle_beta 90.035
_cell_angle_gamma 90.592
_space_group_name_H-M_alt 'P 1'
_space_group_name_Hall 'P 1'
loop_
    _symmetry_equiv_pos_as_xyz
    x,y,z
loop_
    _atom_site_label
    _atom_site_type_symbol
    _atom_site_fract_x
    _atom_site_fract_y
    _atom_site_fract_z
    _atom_site_occupancy
    C0      C    0.58215   0.86122   0.85902   1.000
    C1      C    0.08214   0.86124   0.85903   1.000
    C2      C    0.55139   0.13353   0.58142   1.000
    C3      C    0.05137   0.13352   0.58140   1.000
    C4      C    0.67241   0.13877   0.35905   1.000
    C5      C    0.17238   0.13878   0.35906   1.000
    C6      C    0.70334   0.86654   0.08140   1.000
    C7      C    0.20333   0.86658   0.08139   1.000
    C8      C    0.92458   0.36156   0.63357   1.000
    C9      C    0.42458   0.36159   0.63354   1.000
    C10     C    0.94997   0.63520   0.91100   1.000
    C11     C    0.44998   0.63523   0.91098   1.000
    C12     C    0.83024   0.63842   0.13352   1.000
    C13     C    0.33022   0.63842   0.13353   1.000
    C14     C    0.80463   0.36489   0.41100   1.000
    C15     C    0.30463   0.36485   0.41098   1.000
