# CIF file generated by openbabel 2.4.90, see http://openbabel.sf.net
data_I
_chemical_name_common ''
_cell_length_a 12.119
_cell_length_b 14.542
_cell_length_c 15.229
_cell_angle_alpha 90.002
_cell_angle_beta 90.035
_cell_angle_gamma 90.592
_space_group_name_H-M_alt 'P 1'
_space_group_name_Hall 'P 1'
loop_
    _symmetry_equiv_pos_as_xyz
    x,y,z
loop_
    _atom_site_label
    _atom_site_type_symbol
    _atom_site_fract_x
    _atom_site_fract_y
    _atom_site_fract_z
    _atom_site_occupancy
    Zr0     Zr   0.70291   0.70804   0.96598   1.000
    Zr1     Zr   0.20290   0.70806   0.96598   1.000
    Zr2     Zr   0.55174   0.29197   0.46598   1.000
    Zr3     Zr   0.05172   0.29199   0.46599   1.000
    Zr4     Zr   0.80081   0.20751   0.52699   1.000
    Zr5     Zr   0.30079   0.20751   0.52700   1.000
    Zr6     Zr   0.95389   0.79255   0.02700   1.000
    Zr7     Zr   0.45388   0.79255   0.02701   1.000
    Zr8     Zr   0.58215   0.86122   0.85902   1.000
    Zr9     Zr   0.08214   0.86124   0.85903   1.000
    Zr10    Zr   0.55139   0.13353   0.58142   1.000
    Zr11    Zr   0.05137   0.13352   0.58140   1.000
    Zr12    Zr   0.67241   0.13877   0.35905   1.000
    Zr13    Zr   0.17238   0.13878   0.35906   1.000
    Zr14    Zr   0.70334   0.86654   0.08140   1.000
    Zr15    Zr   0.20333   0.86658   0.08139   1.000
    Zr16    Zr   0.92458   0.36156   0.63357   1.000
    Zr17    Zr   0.42458   0.36159   0.63354   1.000
    Zr18    Zr   0.94997   0.63520   0.91100   1.000
    Zr19    Zr   0.44998   0.63523   0.91098   1.000
    Zr20    Zr   0.83024   0.63842   0.13352   1.000
    Zr21    Zr   0.33022   0.63842   0.13353   1.000
    Zr22    Zr   0.80463   0.36489   0.41100   1.000
    Zr23    Zr   0.30463   0.36485   0.41098   1.000
    Zr24    Zr   0.63909   0.78837   0.85159   1.000
    Zr25    Zr   0.13908   0.78838   0.85159   1.000
    Zr26    Zr   0.52761   0.88702   0.92598   1.000
    Zr27    Zr   0.02759   0.88703   0.92598   1.000
    Zr28    Zr   0.97230   0.13350   0.52606   1.000
    Zr29    Zr   0.47230   0.13351   0.52608   1.000
    Zr30    Zr   0.62093   0.20145   0.58460   1.000
    Zr31    Zr   0.12091   0.20144   0.58459   1.000
    Zr32    Zr   0.61546   0.21162   0.35161   1.000
    Zr33    Zr   0.11543   0.21163   0.35162   1.000
    Zr34    Zr   0.72701   0.11296   0.42602   1.000
    Zr35    Zr   0.22699   0.11297   0.42603   1.000
    Zr36    Zr   0.78239   0.86656   0.02610   1.000
    Zr37    Zr   0.28239   0.86660   0.02611   1.000
    Zr38    Zr   0.63383   0.79861   0.08456   1.000
    Zr39    Zr   0.13381   0.79865   0.08455   1.000
    Zr40    Zr   0.86614   0.28851   0.64095   1.000
    Zr41    Zr   0.36613   0.28855   0.64094   1.000
    Zr42    Zr   0.98087   0.38708   0.56714   1.000
    Zr43    Zr   0.48088   0.38709   0.56710   1.000
    Zr44    Zr   0.52807   0.63686   0.96733   1.000
    Zr45    Zr   0.02807   0.63684   0.96732   1.000
    Zr46    Zr   0.88064   0.70193   0.90715   1.000
    Zr47    Zr   0.38063   0.70194   0.90714   1.000
    Zr48    Zr   0.88866   0.71149   0.14091   1.000
    Zr49    Zr   0.38863   0.71149   0.14092   1.000
    Zr50    Zr   0.77385   0.61288   0.06709   1.000
    Zr51    Zr   0.27382   0.61288   0.06709   1.000
    Zr52    Zr   0.72654   0.36325   0.46727   1.000
    Zr53    Zr   0.22655   0.36323   0.46725   1.000
    Zr54    Zr   0.87393   0.29813   0.40718   1.000
    Zr55    Zr   0.37393   0.29809   0.40716   1.000
    O56     O    0.86814   0.82956   0.02655   1.000
    O57     O    0.74287   0.86655   0.05375   1.000
    O58     O    0.36813   0.82957   0.02656   1.000
    O59     O    0.24286   0.86659   0.05375   1.000
    O60     O    0.04385   0.79560   0.05577   1.000
    O61     O    0.92127   0.75202   0.08395   1.000
    O62     O    0.99074   0.83979   0.97649   1.000
    O63     O    0.54385   0.79558   0.05578   1.000
    O64     O    0.42125   0.75202   0.08396   1.000
    O65     O    0.49075   0.83978   0.97649   1.000
    O66     O    0.80205   0.62565   0.10031   1.000
    O67     O    0.73838   0.66046   0.01653   1.000
    O68     O    0.30202   0.62565   0.10031   1.000
    O69     O    0.23836   0.66047   0.01654   1.000
    O70     O    0.16857   0.83262   0.08297   1.000
    O71     O    0.66859   0.83258   0.08298   1.000
    O72     O    0.85945   0.67496   0.13722   1.000
    O73     O    0.35943   0.67495   0.13722   1.000
    O74     O    0.64394   0.17519   0.35533   1.000
    O75     O    0.58360   0.25179   0.40879   1.000
    O76     O    0.14391   0.17521   0.35534   1.000
    O77     O    0.08358   0.25181   0.40881   1.000
    O78     O    0.69971   0.12587   0.39254   1.000
    O79     O    0.19968   0.12588   0.39254   1.000
    O80     O    0.33928   0.33147   0.40907   1.000
    O81     O    0.46283   0.29503   0.43657   1.000
    O82     O    0.83928   0.33151   0.40909   1.000
    O83     O    0.96283   0.29506   0.43659   1.000
    O84     O    0.26559   0.36404   0.43912   1.000
    O85     O    0.76559   0.36407   0.43914   1.000
    O86     O    0.76391   0.16024   0.47651   1.000
    O87     O    0.26389   0.16024   0.47652   1.000
    O88     O    0.63914   0.32761   0.46662   1.000
    O89     O    0.51631   0.33953   0.51654   1.000
    O90     O    0.13914   0.32761   0.46662   1.000
    O91     O    0.01630   0.33954   0.51656   1.000
    O92     O    0.88655   0.17051   0.52653   1.000
    O93     O    0.01184   0.13351   0.55373   1.000
    O94     O    0.38655   0.17051   0.52654   1.000
    O95     O    0.51185   0.13352   0.55375   1.000
    O96     O    0.71087   0.20448   0.55579   1.000
    O97     O    0.83347   0.24801   0.58397   1.000
    O98     O    0.21085   0.20447   0.55579   1.000
    O99     O    0.33346   0.24803   0.58397   1.000
    O100    O    0.45273   0.37434   0.60032   1.000
    O101    O    0.95273   0.37432   0.60035   1.000
    O102    O    0.08614   0.16748   0.58299   1.000
    O103    O    0.58616   0.16749   0.58301   1.000
    O104    O    0.39536   0.32507   0.63724   1.000
    O105    O    0.89536   0.32503   0.63726   1.000
    O106    O    0.61062   0.82479   0.85530   1.000
    O107    O    0.67100   0.74821   0.90878   1.000
    O108    O    0.11061   0.82481   0.85531   1.000
    O109    O    0.17099   0.74822   0.90879   1.000
    O110    O    0.55488   0.87412   0.89250   1.000
    O111    O    0.05487   0.87413   0.89250   1.000
    O112    O    0.41530   0.66859   0.90906   1.000
    O113    O    0.29176   0.70500   0.93656   1.000
    O114    O    0.91530   0.66856   0.90907   1.000
    O115    O    0.79177   0.70499   0.93656   1.000
    O116    O    0.48903   0.63604   0.93916   1.000
    O117    O    0.98902   0.63602   0.93916   1.000
    O118    O    0.61549   0.67245   0.96665   1.000
    O119    O    0.11548   0.67245   0.96665   1.000
    O120    O    0.58633   0.24671   0.52529   1.000
    O121    O    0.08632   0.24671   0.52529   1.000
    O122    O    0.66837   0.75333   0.02527   1.000
    O123    O    0.16836   0.75336   0.02527   1.000
    O124    O    0.91726   0.74724   0.96707   1.000
    O125    O    0.41725   0.74725   0.96707   1.000
    O126    O    0.83737   0.25282   0.46708   1.000
    O127    O    0.33736   0.25280   0.46708   1.000
    N128    N    0.71276   0.07862   0.15451   1.000
    O129    O    0.69330   0.09253   0.23745   1.000
    O130    O    0.70487   0.99155   0.13410   1.000
    N131    N    0.29170   0.57678   0.33795   1.000
    O132    O    0.30096   0.48988   0.35832   1.000
    O133    O    0.31044   0.59131   0.25499   1.000
    N134    N    0.46314   0.42333   0.83801   1.000
    O135    O    0.44441   0.40876   0.75502   1.000
    O136    O    0.45378   0.51022   0.85835   1.000
    N137    N    0.96302   0.42328   0.83806   1.000
    O138    O    0.94433   0.40871   0.75507   1.000
    O139    O    0.95371   0.51018   0.85838   1.000
    N140    N    0.04730   0.92144   0.65443   1.000
    O141    O    0.06400   0.90750   0.73740   1.000
    O142    O    0.05252   0.00851   0.63406   1.000
    N143    N    0.54199   0.92145   0.65441   1.000
    O144    O    0.54987   0.00852   0.63406   1.000
    O145    O    0.56135   0.90750   0.73739   1.000
    N146    N    0.21267   0.07867   0.15451   1.000
    O147    O    0.20481   0.99160   0.13409   1.000
    O148    O    0.19324   0.09257   0.23746   1.000
    N149    N    0.79176   0.57684   0.33796   1.000
    O150    O    0.81048   0.59134   0.25500   1.000
    O151    O    0.80099   0.48993   0.35834   1.000
loop_
    _geom_bond_atom_site_label_1
    _geom_bond_atom_site_label_2
    _geom_bond_distance
    _geom_bond_site_symmetry_2
    _ccdc_geom_bond_type
    Zr36   O56       1.17520      .   S
    Zr6    O56       1.17520      .   S
    Zr36   O57       0.63793      .   S
    Zr14   O57       0.63793      .   S
    Zr37   O58       1.17527      .   S
    Zr7    O58       1.17527      .   S
    Zr37   O59       0.63792      .   S
    Zr15   O59       0.63792      .   S
    Zr6    O60       1.17522  1_655   S
    Zr39   O60       1.17522      .   S
    Zr6    O61       1.11878      .   S
    Zr48   O61       1.11878      .   S
    Zr6    O62       1.12121  1_554   S
    Zr27   O62       1.12121  1_455   S
    Zr7    O63       1.17535      .   S
    Zr38   O63       1.17535      .   S
    Zr7    O64       1.11882      .   S
    Zr49   O64       1.11882      .   S
    Zr7    O65       1.12129  1_554   S
    Zr26   O65       1.12129      .   S
    Zr50   O66       0.63686      .   S
    Zr20   O66       0.63686      .   S
    Zr50   O67       1.12348      .   S
    Zr0    O67       1.12348  1_556   S
    Zr51   O68       0.63687      .   S
    Zr21   O68       0.63687      .   S
    Zr51   O69       1.12346      .   S
    Zr1    O69       1.12346  1_556   S
    Zr15   O70       0.64630      .   S
    Zr39   O70       0.64630      .   S
    Zr14   O71       0.64630      .   S
    Zr38   O71       0.64630      .   S
    Zr20   O72       0.63781      .   S
    Zr48   O72       0.63781      .   S
    Zr21   O73       0.63781      .   S
    Zr49   O73       0.63781      .   S
    Zr32   O74       0.63768      .   S
    Zr12   O74       0.63768      .   S
    Zr32   O75       1.11977      .   S
    Zr2    O75       1.11977      .   S
    Zr33   O76       0.63769      .   S
    Zr13   O76       0.63769      .   S
    Zr33   O77       1.11975      .   S
    Zr3    O77       1.11975      .   S
    Zr12   O78       0.63703      .   S
    Zr34   O78       0.63703      .   S
    Zr13   O79       0.63702      .   S
    Zr35   O79       0.63702      .   S
    Zr55   O80       0.64576      .   S
    Zr23   O80       0.64576      .   S
    Zr55   O81       1.16781      .   S
    Zr2    O81       1.16781      .   S
    Zr54   O82       0.64576      .   S
    Zr22   O82       0.64576      .   S
    Zr54   O83       1.16773      .   S
    Zr3    O83       1.16773  1_455   S
    Zr23   O84       0.63859      .   S
    Zr53   O84       0.63859      .   S
    Zr22   O85       0.63858      .   S
    Zr52   O85       0.63858      .   S
    Zr34   O86       1.12106      .   S
    Zr4    O86       1.12106      .   S
    Zr35   O87       1.12110      .   S
    Zr5    O87       1.12110      .   S
    Zr2    O88       1.17446      .   S
    Zr52   O88       1.17446      .   S
    Zr2    O89       1.12343      .   S
    Zr43   O89       1.12343      .   S
    Zr3    O90       1.17444      .   S
    Zr53   O90       1.17444      .   S
    Zr3    O91       1.12341      .   S
    Zr42   O91       1.12341  1_655   S
    Zr28   O92       1.17517      .   S
    Zr4    O92       1.17517      .   S
    Zr28   O93       0.63785  1_655   S
    Zr11   O93       0.63785      .   S
    Zr29   O94       1.17521      .   S
    Zr5    O94       1.17521      .   S
    Zr29   O95       0.63794      .   S
    Zr10   O95       0.63794      .   S
    Zr4    O96       1.17555      .   S
    Zr30   O96       1.17555      .   S
    Zr4    O97       1.11861      .   S
    Zr40   O97       1.11861      .   S
    Zr5    O98       1.17552      .   S
    Zr31   O98       1.17552      .   S
    Zr5    O99       1.11866      .   S
    Zr41   O99       1.11866      .   S
    Zr43   O100      0.63685      .   S
    Zr17   O100      0.63685      .   S
    Zr42   O101      0.63685      .   S
    Zr16   O101      0.63685      .   S
    Zr11   O102      0.64628      .   S
    Zr31   O102      0.64628      .   S
    Zr10   O103      0.64627      .   S
    Zr30   O103      0.64627      .   S
    Zr17   O104      0.63784      .   S
    Zr41   O104      0.63784      .   S
    Zr16   O105      0.63783      .   S
    Zr40   O105      0.63783      .   S
    Zr24   O106      0.63770      .   S
    Zr8    O106      0.63770      .   S
    Zr24   O107      1.11965      .   S
    Zr0    O107      1.11965      .   S
    Zr25   O108      0.63770      .   S
    Zr9    O108      0.63770      .   S
    Zr25   O109      1.11966      .   S
    Zr1    O109      1.11966      .   S
    Zr8    O110      0.63702      .   S
    Zr26   O110      0.63702      .   S
    Zr9    O111      0.63702      .   S
    Zr27   O111      0.63702      .   S
    Zr47   O112      0.64574      .   S
    Zr19   O112      0.64574      .   S
    Zr47   O113      1.16796      .   S
    Zr1    O113      1.16796      .   S
    Zr46   O114      0.64575      .   S
    Zr18   O114      0.64575      .   S
    Zr46   O115      1.16791      .   S
    Zr0    O115      1.16791      .   S
    Zr19   O116      0.63860      .   S
    Zr44   O116      0.63860      .   S
    Zr18   O117      0.63851      .   S
    Zr45   O117      0.63851  1_455   S
    Zr0    O118      1.17436      .   S
    Zr44   O118      1.17436      .   S
    Zr1    O119      1.17444      .   S
    Zr45   O119      1.17444      .   S
    Zr30   O120      1.19585      .   S
    Zr2    O120      1.19585      .   S
    Zr31   O121      1.19582      .   S
    Zr3    O121      1.19582      .   S
    Zr38   O122      1.19595      .   S
    Zr0    O122      1.19595  1_556   S
    Zr39   O123      1.19593      .   S
    Zr1    O123      1.19593  1_556   S
    Zr46   O124      1.20723      .   S
    Zr6    O124      1.20723  1_554   S
    Zr47   O125      1.20729      .   S
    Zr7    O125      1.20729  1_554   S
    Zr54   O126      1.20719      .   S
    Zr4    O126      1.20719      .   S
    Zr55   O127      1.20722      .   S
    Zr5    O127      1.20722      .   S
    N128   O129      1.30133      .   S
    Zr12   O129      1.98729      .   S
    N128   O130      1.30627  1_545   S
    Zr14   O130      1.98707      .   S
    N131   O132      1.30725      .   S
    Zr23   O132      1.98807      .   S
    N131   O133      1.30061      .   S
    Zr21   O133      1.98638      .   S
    N134   O135      1.30081      .   S
    Zr17   O135      1.98669      .   S
    N134   O136      1.30702      .   S
    Zr19   O136      1.98771      .   S
    N137   O138      1.30084      .   S
    Zr16   O138      1.98673      .   S
    N137   O139      1.30704      .   S
    Zr18   O139      1.98774      .   S
    N140   O141      1.29590      .   S
    Zr9    O141      1.98350      .   S
    N140   O142      1.30448  1_565   S
    Zr11   O142      1.98717      .   S
    N143   O144      1.30611  1_565   S
    Zr10   O144      1.98685      .   S
    N143   O145      1.30150      .   S
    Zr8    O145      1.98757      .   S
    N146   O147      1.30630  1_545   S
    Zr15   O147      1.98714      .   S
    N146   O148      1.30131      .   S
    Zr13   O148      1.98724      .   S
    N149   O150      1.30059      .   S
    Zr20   O150      1.98635      .   S
    N149   O151      1.30731      .   S
    Zr22   O151      1.98818      .   S
