# CIF file generated by openbabel 2.4.90, see http://openbabel.sf.net
data_I
_chemical_name_common ''
_cell_length_a 12.119
_cell_length_b 14.542
_cell_length_c 15.229
_cell_angle_alpha 90.002
_cell_angle_beta 90.035
_cell_angle_gamma 90.592
_space_group_name_H-M_alt 'P 1'
_space_group_name_Hall 'P 1'
loop_
    _symmetry_equiv_pos_as_xyz
    x,y,z
loop_
    _atom_site_label
    _atom_site_type_symbol
    _atom_site_fract_x
    _atom_site_fract_y
    _atom_site_fract_z
    _atom_site_occupancy
    C0      C    0.70291   0.70804   0.96598   1.000
    C1      C    0.20290   0.70806   0.96598   1.000
    C2      C    0.55174   0.29197   0.46598   1.000
    C3      C    0.05172   0.29199   0.46599   1.000
    C4      C    0.80081   0.20751   0.52699   1.000
    C5      C    0.30079   0.20751   0.52700   1.000
    C6      C    0.95389   0.79255   0.02700   1.000
    C7      C    0.45388   0.79255   0.02701   1.000
    C8      C    0.54115   0.75073   0.72633   1.000
    C9      C    0.04098   0.75074   0.72638   1.000
    C10     C    0.48243   0.70241   0.57752   1.000
    C11     C    0.00000   0.70241   0.57761   1.000
    C12     C    0.45830   0.81916   0.45966   1.000
    C13     C    0.00000   0.81913   0.45972   1.000
    C14     C    0.49213   0.98397   0.49054   1.000
    C15     C    0.00000   0.98394   0.49055   1.000
    C16     C    0.62328   0.15376   0.74199   1.000
    C17     C    0.12331   0.15375   0.74194   1.000
    C18     C    0.62505   0.03950   0.86394   1.000
    C19     C    0.12510   0.03951   0.86391   1.000
    C20     C    0.71344   0.24930   0.22651   1.000
    C21     C    0.21331   0.24934   0.22652   1.000
    C22     C    0.77238   0.29770   0.07785   1.000
    C23     C    0.27218   0.29777   0.07786   1.000
    C24     C    0.79683   0.18101   0.95998   1.000
    C25     C    0.29665   0.18110   0.95997   1.000
    C26     C    0.76296   0.01618   0.99069   1.000
    C27     C    0.26286   0.01625   0.99068   1.000
    C28     C    0.63132   0.84627   0.24182   1.000
    C29     C    0.13131   0.84630   0.24181   1.000
    C30     C    0.62937   0.96047   0.36381   1.000
    C31     C    0.12936   0.96048   0.36381   1.000
    C32     C    0.96764   0.25281   0.76589   1.000
    C33     C    0.46777   0.25287   0.76583   1.000
    C34     C    0.02538   0.20586   0.91506   1.000
    C35     C    0.52562   0.20593   0.91498   1.000
    C36     C    0.04590   0.32303   0.03332   1.000
    C37     C    0.54613   0.32309   0.03324   1.000
    C38     C    0.01001   0.48689   0.00245   1.000
    C39     C    0.51018   0.48693   0.00240   1.000
    C40     C    0.87943   0.65344   0.75002   1.000
    C41     C    0.37946   0.65349   0.75000   1.000
    C42     C    0.87975   0.53910   0.62817   1.000
    C43     C    0.37978   0.53915   0.62814   1.000
    C44     C    0.78751   0.74726   0.26573   1.000
    C45     C    0.28740   0.74722   0.26574   1.000
    C46     C    0.72962   0.79435   0.41476   1.000
    C47     C    0.22945   0.79427   0.41477   1.000
    C48     C    0.70864   0.67726   0.53299   1.000
    C49     C    0.20849   0.67715   0.53298   1.000
    C50     C    0.74436   0.51334   0.50227   1.000
    C51     C    0.24428   0.51325   0.50224   1.000
    C52     C    0.87532   0.34659   0.25018   1.000
    C53     C    0.37539   0.34657   0.25015   1.000
    C54     C    0.87515   0.46085   0.12827   1.000
    C55     C    0.37522   0.46085   0.12826   1.000
    C56     C    0.58215   0.86122   0.85902   1.000
    C57     C    0.08214   0.86124   0.85903   1.000
    C58     C    0.57928   0.92588   0.78173   1.000
    C59     C    0.07925   0.92589   0.78173   1.000
    C60     C    0.54991   0.89580   0.69527   1.000
    C61     C    0.04983   0.89580   0.69529   1.000
    C62     C    0.52928   0.80172   0.67507   1.000
    C63     C    0.02912   0.80172   0.67511   1.000
    C64     C    0.49739   0.77494   0.59196   1.000
    C65     C    0.00000   0.77493   0.59202   1.000
    C66     C    0.48423   0.84114   0.52502   1.000
    C67     C    0.00000   0.84113   0.52507   1.000
    C68     C    0.50366   0.93309   0.54195   1.000
    C69     C    0.00353   0.93307   0.54197   1.000
    C70     C    0.53746   0.96344   0.62666   1.000
    C71     C    0.03738   0.96344   0.62666   1.000
    C72     C    0.56412   0.05764   0.64600   1.000
    C73     C    0.06410   0.05763   0.64598   1.000
    C74     C    0.55139   0.13353   0.58142   1.000
    C75     C    0.05137   0.13352   0.58140   1.000
    C76     C    0.60055   0.08232   0.72934   1.000
    C77     C    0.10055   0.08231   0.72931   1.000
    C78     C    0.60364   0.01764   0.79760   1.000
    C79     C    0.10366   0.01765   0.79758   1.000
    C80     C    0.67241   0.13877   0.35905   1.000
    C81     C    0.17238   0.13878   0.35906   1.000
    C82     C    0.67527   0.07412   0.28174   1.000
    C83     C    0.17523   0.07415   0.28175   1.000
    C84     C    0.70478   0.10424   0.19536   1.000
    C85     C    0.20469   0.10428   0.19536   1.000
    C86     C    0.72541   0.19834   0.17524   1.000
    C87     C    0.22528   0.19838   0.17525   1.000
    C88     C    0.75745   0.22517   0.09222   1.000
    C89     C    0.25728   0.22523   0.09222   1.000
    C90     C    0.77076   0.15899   0.02528   1.000
    C91     C    0.27061   0.15906   0.02528   1.000
    C92     C    0.75132   0.06703   0.04213   1.000
    C93     C    0.25120   0.06710   0.04212   1.000
    C94     C    0.71732   0.03663   0.12673   1.000
    C95     C    0.21726   0.03668   0.12673   1.000
    C96     C    0.69062   0.94243   0.14598   1.000
    C97     C    0.19058   0.94247   0.14597   1.000
    C98     C    0.70334   0.86654   0.08140   1.000
    C99     C    0.20333   0.86658   0.08139   1.000
    C100    C    0.65406   0.91772   0.22924   1.000
    C101    C    0.15404   0.91775   0.22924   1.000
    C102    C    0.65088   0.98236   0.29753   1.000
    C103    C    0.15085   0.98238   0.29753   1.000
    C104    C    0.92458   0.36156   0.63357   1.000
    C105    C    0.42458   0.36159   0.63354   1.000
    C106    C    0.92672   0.42673   0.71058   1.000
    C107    C    0.42678   0.42678   0.71054   1.000
    C108    C    0.95601   0.39753   0.79716   1.000
    C109    C    0.45609   0.39758   0.79712   1.000
    C110    C    0.97799   0.30402   0.81734   1.000
    C111    C    0.47815   0.30408   0.81728   1.000
    C112    C    0.00939   0.27797   0.90062   1.000
    C113    C    0.50957   0.27803   0.90055   1.000
    C114    C    0.02056   0.34441   0.96775   1.000
    C115    C    0.52077   0.34447   0.96768   1.000
    C116    C    0.99994   0.43584   0.95081   1.000
    C117    C    0.50007   0.43589   0.95076   1.000
    C118    C    0.96666   0.46543   0.86592   1.000
    C119    C    0.46679   0.46548   0.86587   1.000
    C120    C    0.93885   0.55895   0.84642   1.000
    C121    C    0.43888   0.55899   0.84639   1.000
    C122    C    0.94997   0.63520   0.91100   1.000
    C123    C    0.44998   0.63523   0.91098   1.000
    C124    C    0.90290   0.58260   0.76283   1.000
    C125    C    0.40296   0.58265   0.76280   1.000
    C126    C    0.90117   0.51782   0.69457   1.000
    C127    C    0.40121   0.51787   0.69454   1.000
    C128    C    0.83024   0.63842   0.13352   1.000
    C129    C    0.33022   0.63842   0.13353   1.000
    C130    C    0.82815   0.57328   0.21055   1.000
    C131    C    0.32813   0.57326   0.21055   1.000
    C132    C    0.79885   0.60254   0.29708   1.000
    C133    C    0.29879   0.60250   0.29707   1.000
    C134    C    0.77696   0.69608   0.31717   1.000
    C135    C    0.27686   0.69603   0.31717   1.000
    C136    C    0.74551   0.72222   0.40038   1.000
    C137    C    0.24537   0.72214   0.40038   1.000
    C138    C    0.73408   0.65581   0.46751   1.000
    C139    C    0.23395   0.65572   0.46749   1.000
    C140    C    0.75462   0.56436   0.45065   1.000
    C141    C    0.25454   0.56428   0.45063   1.000
    C142    C    0.78801   0.53468   0.36584   1.000
    C143    C    0.28795   0.53463   0.36582   1.000
    C144    C    0.81581   0.44114   0.34643   1.000
    C145    C    0.31581   0.44109   0.34641   1.000
    C146    C    0.80463   0.36489   0.41100   1.000
    C147    C    0.30463   0.36485   0.41098   1.000
    C148    C    0.85186   0.41744   0.26292   1.000
    C149    C    0.35189   0.41742   0.26290   1.000
    C150    C    0.85368   0.48218   0.19462   1.000
    C151    C    0.35372   0.48217   0.19461   1.000
    C152    C    0.63909   0.78837   0.85159   1.000
    C153    C    0.13908   0.78838   0.85159   1.000
    C154    C    0.52761   0.88702   0.92598   1.000
    C155    C    0.02759   0.88703   0.92598   1.000
    C156    C    0.97230   0.13350   0.52606   1.000
    C157    C    0.47230   0.13351   0.52608   1.000
    C158    C    0.62093   0.20145   0.58460   1.000
    C159    C    0.12091   0.20144   0.58459   1.000
    C160    C    0.61546   0.21162   0.35161   1.000
    C161    C    0.11543   0.21163   0.35162   1.000
    C162    C    0.72701   0.11296   0.42602   1.000
    C163    C    0.22699   0.11297   0.42603   1.000
    C164    C    0.78239   0.86656   0.02610   1.000
    C165    C    0.28239   0.86660   0.02611   1.000
    C166    C    0.63383   0.79861   0.08456   1.000
    C167    C    0.13381   0.79865   0.08455   1.000
    C168    C    0.86614   0.28851   0.64095   1.000
    C169    C    0.36613   0.28855   0.64094   1.000
    C170    C    0.98087   0.38708   0.56714   1.000
    C171    C    0.48088   0.38709   0.56710   1.000
    C172    C    0.52807   0.63686   0.96733   1.000
    C173    C    0.02807   0.63684   0.96732   1.000
    C174    C    0.88064   0.70193   0.90715   1.000
    C175    C    0.38063   0.70194   0.90714   1.000
    C176    C    0.88866   0.71149   0.14091   1.000
    C177    C    0.38863   0.71149   0.14092   1.000
    C178    C    0.77385   0.61288   0.06709   1.000
    C179    C    0.27382   0.61288   0.06709   1.000
    C180    C    0.72654   0.36325   0.46727   1.000
    C181    C    0.22655   0.36323   0.46725   1.000
    C182    C    0.87393   0.29813   0.40718   1.000
    C183    C    0.37393   0.29809   0.40716   1.000
    O184    O    0.50513   0.46141   0.97658   1.000
    O185    O    0.00497   0.46136   0.97663   1.000
    O186    O    0.26091   0.11308   0.03370   1.000
    O187    O    0.26394   0.19215   0.05875   1.000
    O188    O    0.28363   0.17008   0.99263   1.000
    O189    O    0.76104   0.11301   0.03370   1.000
    O190    O    0.76410   0.19208   0.05875   1.000
    O191    O    0.78380   0.17000   0.99263   1.000
    O192    O    0.86814   0.82956   0.02655   1.000
    O193    O    0.74287   0.86655   0.05375   1.000
    O194    O    0.36813   0.82957   0.02656   1.000
    O195    O    0.24286   0.86659   0.05375   1.000
    O196    O    0.04385   0.79560   0.05577   1.000
    O197    O    0.92127   0.75202   0.08395   1.000
    O198    O    0.99074   0.83979   0.97649   1.000
    O199    O    0.54385   0.79558   0.05578   1.000
    O200    O    0.42125   0.75202   0.08396   1.000
    O201    O    0.49075   0.83978   0.97649   1.000
    O202    O    0.53345   0.33378   0.00046   1.000
    O203    O    0.03323   0.33372   0.00054   1.000
    O204    O    0.23423   0.05189   0.08442   1.000
    O205    O    0.25703   0.04168   0.01640   1.000
    O206    O    0.73432   0.05183   0.08443   1.000
    O207    O    0.75714   0.04161   0.01641   1.000
    O208    O    0.80205   0.62565   0.10031   1.000
    O209    O    0.73838   0.66046   0.01653   1.000
    O210    O    0.30202   0.62565   0.10031   1.000
    O211    O    0.23836   0.66047   0.01654   1.000
    O212    O    0.76491   0.26143   0.08503   1.000
    O213    O    0.26473   0.26150   0.08504   1.000
    O214    O    0.16857   0.83262   0.08297   1.000
    O215    O    0.19695   0.90453   0.11368   1.000
    O216    O    0.66859   0.83258   0.08298   1.000
    O217    O    0.69698   0.90448   0.11369   1.000
    O218    O    0.74143   0.21175   0.13373   1.000
    O219    O    0.24128   0.21181   0.13374   1.000
    O220    O    0.20392   0.98957   0.13635   1.000
    O221    O    0.21097   0.07048   0.16105   1.000
    O222    O    0.70397   0.98953   0.13636   1.000
    O223    O    0.71105   0.07043   0.16105   1.000
    O224    O    0.36447   0.47151   0.16144   1.000
    O225    O    0.86442   0.47151   0.16145   1.000
    O226    O    0.85945   0.67496   0.13722   1.000
    O227    O    0.82920   0.60585   0.17204   1.000
    O228    O    0.35943   0.67495   0.13722   1.000
    O229    O    0.32918   0.60584   0.17204   1.000
    O230    O    0.17231   0.93011   0.18760   1.000
    O231    O    0.67234   0.93007   0.18761   1.000
    O232    O    0.71509   0.15129   0.18530   1.000
    O233    O    0.71942   0.22382   0.20088   1.000
    O234    O    0.21499   0.15133   0.18531   1.000
    O235    O    0.21929   0.22386   0.20089   1.000
    O236    O    0.34092   0.52771   0.20258   1.000
    O237    O    0.35280   0.44979   0.22875   1.000
    O238    O    0.84092   0.52773   0.20259   1.000
    O239    O    0.85277   0.44981   0.22877   1.000
    O240    O    0.69003   0.08918   0.23855   1.000
    O241    O    0.18996   0.08921   0.23856   1.000
    O242    O    0.31346   0.58788   0.25381   1.000
    O243    O    0.81350   0.58791   0.25382   1.000
    O244    O    0.14268   0.88202   0.23552   1.000
    O245    O    0.15245   0.95006   0.26338   1.000
    O246    O    0.64269   0.88200   0.23553   1.000
    O247    O    0.65247   0.95004   0.26339   1.000
    O248    O    0.36364   0.38199   0.25652   1.000
    O249    O    0.86359   0.38201   0.25655   1.000
    O250    O    0.33385   0.42926   0.30465   1.000
    O251    O    0.83384   0.42929   0.30468   1.000
    O252    O    0.78224   0.72167   0.29145   1.000
    O253    O    0.28213   0.72162   0.29145   1.000
    O254    O    0.66308   0.02824   0.28964   1.000
    O255    O    0.67384   0.10645   0.32040   1.000
    O256    O    0.16304   0.02826   0.28964   1.000
    O257    O    0.17381   0.10646   0.32041   1.000
    O258    O    0.28782   0.64926   0.30712   1.000
    O259    O    0.29337   0.56856   0.33145   1.000
    O260    O    0.78790   0.64931   0.30713   1.000
    O261    O    0.79343   0.56861   0.33146   1.000
    O262    O    0.14011   0.97143   0.33067   1.000
    O263    O    0.64012   0.97142   0.33067   1.000
    O264    O    0.76123   0.70915   0.35877   1.000
    O265    O    0.26111   0.70909   0.35877   1.000
    O266    O    0.30188   0.48786   0.35611   1.000
    O267    O    0.31022   0.40297   0.37869   1.000
    O268    O    0.80191   0.48791   0.35614   1.000
    O269    O    0.81022   0.40301   0.37872   1.000
    O270    O    0.64394   0.17519   0.35533   1.000
    O271    O    0.58360   0.25179   0.40879   1.000
    O272    O    0.14391   0.17521   0.35534   1.000
    O273    O    0.08358   0.25181   0.40881   1.000
    O274    O    0.69971   0.12587   0.39254   1.000
    O275    O    0.19968   0.12588   0.39254   1.000
    O276    O    0.27125   0.54945   0.40822   1.000
    O277    O    0.77131   0.54952   0.40825   1.000
    O278    O    0.73756   0.75829   0.40757   1.000
    O279    O    0.73979   0.68901   0.43394   1.000
    O280    O    0.23741   0.75821   0.40757   1.000
    O281    O    0.23966   0.68893   0.43394   1.000
    O282    O    0.33928   0.33147   0.40907   1.000
    O283    O    0.46283   0.29503   0.43657   1.000
    O284    O    0.83928   0.33151   0.40909   1.000
    O285    O    0.96283   0.29506   0.43659   1.000
    O286    O    0.26559   0.36404   0.43912   1.000
    O287    O    0.76559   0.36407   0.43914   1.000
    O288    O    0.76391   0.16024   0.47651   1.000
    O289    O    0.26389   0.16024   0.47652   1.000
    O290    O    0.24424   0.61000   0.45906   1.000
    O291    O    0.24941   0.53876   0.47644   1.000
    O292    O    0.74435   0.61008   0.45908   1.000
    O293    O    0.74949   0.53885   0.47646   1.000
    O294    O    0.47126   0.83015   0.49234   1.000
    O295    O    0.00000   0.83013   0.49240   1.000
    O296    O    0.63914   0.32761   0.46662   1.000
    O297    O    0.51631   0.33953   0.51654   1.000
    O298    O    0.13914   0.32761   0.46662   1.000
    O299    O    0.01630   0.33954   0.51656   1.000
    O300    O    0.22122   0.66643   0.50023   1.000
    O301    O    0.72136   0.66653   0.50025   1.000
    O302    O    0.49789   0.95853   0.51625   1.000
    O303    O    0.00176   0.95850   0.51626   1.000
    O304    O    0.49394   0.88711   0.53349   1.000
    O305    O    0.49081   0.80804   0.55849   1.000
    O306    O    0.00176   0.88710   0.53352   1.000
    O307    O    0.00000   0.80803   0.55854   1.000
    O308    O    0.88655   0.17051   0.52653   1.000
    O309    O    0.01184   0.13351   0.55373   1.000
    O310    O    0.38655   0.17051   0.52654   1.000
    O311    O    0.51185   0.13352   0.55375   1.000
    O312    O    0.71087   0.20448   0.55579   1.000
    O313    O    0.83347   0.24801   0.58397   1.000
    O314    O    0.21085   0.20447   0.55579   1.000
    O315    O    0.33346   0.24803   0.58397   1.000
    O316    O    0.52056   0.94826   0.58431   1.000
    O317    O    0.02046   0.94825   0.58432   1.000
    O318    O    0.45273   0.37434   0.60032   1.000
    O319    O    0.95273   0.37432   0.60035   1.000
    O320    O    0.48991   0.73867   0.58474   1.000
    O321    O    0.00000   0.73867   0.58481   1.000
    O322    O    0.08614   0.16748   0.58299   1.000
    O323    O    0.05773   0.09557   0.61369   1.000
    O324    O    0.58616   0.16749   0.58301   1.000
    O325    O    0.55776   0.09559   0.61371   1.000
    O326    O    0.51333   0.78833   0.63351   1.000
    O327    O    0.01456   0.78833   0.63357   1.000
    O328    O    0.55079   0.01054   0.63633   1.000
    O329    O    0.54369   0.92962   0.66097   1.000
    O330    O    0.05074   0.01053   0.63632   1.000
    O331    O    0.04361   0.92962   0.66097   1.000
    O332    O    0.39049   0.52851   0.66134   1.000
    O333    O    0.89046   0.52846   0.66137   1.000
    O334    O    0.39536   0.32507   0.63724   1.000
    O335    O    0.42568   0.39419   0.67204   1.000
    O336    O    0.89536   0.32503   0.63726   1.000
    O337    O    0.92565   0.39414   0.67207   1.000
    O338    O    0.08233   0.06997   0.68764   1.000
    O339    O    0.58234   0.06998   0.68767   1.000
    O340    O    0.53960   0.84876   0.68517   1.000
    O341    O    0.53521   0.77622   0.70070   1.000
    O342    O    0.03947   0.84876   0.68520   1.000
    O343    O    0.03505   0.77623   0.70075   1.000
    O344    O    0.41400   0.47232   0.70254   1.000
    O345    O    0.40208   0.55026   0.72867   1.000
    O346    O    0.91395   0.47227   0.70257   1.000
    O347    O    0.90203   0.55021   0.72870   1.000
    O348    O    0.56459   0.91084   0.73850   1.000
    O349    O    0.06454   0.91085   0.73851   1.000
    O350    O    0.44144   0.41218   0.75383   1.000
    O351    O    0.94136   0.41213   0.75387   1.000
    O352    O    0.11193   0.11803   0.73563   1.000
    O353    O    0.10211   0.04998   0.76344   1.000
    O354    O    0.61191   0.11804   0.73567   1.000
    O355    O    0.60209   0.04998   0.76347   1.000
    O356    O    0.39121   0.61807   0.75640   1.000
    O357    O    0.89116   0.61802   0.75643   1.000
    O358    O    0.42092   0.57082   0.80460   1.000
    O359    O    0.92087   0.57077   0.80462   1.000
    O360    O    0.47296   0.27848   0.79155   1.000
    O361    O    0.97281   0.27842   0.79162   1.000
    O362    O    0.09145   0.97177   0.78965   1.000
    O363    O    0.08069   0.89356   0.82038   1.000
    O364    O    0.59146   0.97176   0.78967   1.000
    O365    O    0.58071   0.89355   0.82038   1.000
    O366    O    0.46712   0.35083   0.80720   1.000
    O367    O    0.46144   0.43153   0.83149   1.000
    O368    O    0.96700   0.35078   0.80725   1.000
    O369    O    0.96133   0.43148   0.83154   1.000
    O370    O    0.11438   0.02858   0.83074   1.000
    O371    O    0.61434   0.02857   0.83077   1.000
    O372    O    0.49386   0.29106   0.85891   1.000
    O373    O    0.99369   0.29100   0.85898   1.000
    O374    O    0.45284   0.51223   0.85613   1.000
    O375    O    0.44443   0.59711   0.87868   1.000
    O376    O    0.95275   0.51219   0.85617   1.000
    O377    O    0.94441   0.59707   0.87871   1.000
    O378    O    0.61062   0.82479   0.85530   1.000
    O379    O    0.67100   0.74821   0.90878   1.000
    O380    O    0.11061   0.82481   0.85531   1.000
    O381    O    0.17099   0.74822   0.90879   1.000
    O382    O    0.55488   0.87412   0.89250   1.000
    O383    O    0.05487   0.87413   0.89250   1.000
    O384    O    0.48343   0.45068   0.90831   1.000
    O385    O    0.98330   0.45063   0.90836   1.000
    O386    O    0.51759   0.24198   0.90776   1.000
    O387    O    0.51517   0.31125   0.93411   1.000
    O388    O    0.01739   0.24192   0.90784   1.000
    O389    O    0.01497   0.31119   0.93418   1.000
    O390    O    0.41530   0.66859   0.90906   1.000
    O391    O    0.29176   0.70500   0.93656   1.000
    O392    O    0.91530   0.66856   0.90907   1.000
    O393    O    0.79177   0.70499   0.93656   1.000
    O394    O    0.48903   0.63604   0.93916   1.000
    O395    O    0.98902   0.63602   0.93916   1.000
    O396    O    0.51042   0.39018   0.95922   1.000
    O397    O    0.01025   0.39013   0.95928   1.000
    O398    O    0.61549   0.67245   0.96665   1.000
    O399    O    0.11548   0.67245   0.96665   1.000
    O400    O    0.58633   0.24671   0.52529   1.000
    O401    O    0.08632   0.24671   0.52529   1.000
    O402    O    0.66837   0.75333   0.02527   1.000
    O403    O    0.16836   0.75336   0.02527   1.000
    O404    O    0.91726   0.74724   0.96707   1.000
    O405    O    0.41725   0.74725   0.96707   1.000
    O406    O    0.83737   0.25282   0.46708   1.000
    O407    O    0.33736   0.25280   0.46708   1.000
loop_
    _geom_bond_atom_site_label_1
    _geom_bond_atom_site_label_2
    _geom_bond_distance
    _geom_bond_site_symmetry_2
    _ccdc_geom_bond_type
    C39    O184      0.54370  1_554   S
    C117   O184      0.54370      .   S
    C38    O185      0.54370  1_554   S
    C116   O185      0.54370  1_655   S
    C91    O186      0.68976      .   S
    C93    O186      0.68976      .   S
    C91    O187      0.70616      .   S
    C89    O187      0.70616      .   S
    C91    O188      0.54537  1_554   S
    C25    O188      0.54537      .   S
    C90    O189      0.68976      .   S
    C92    O189      0.68976      .   S
    C90    O190      0.70615      .   S
    C88    O190      0.70615      .   S
    C90    O191      0.54538  1_554   S
    C24    O191      0.54538      .   S
    C164   O192      1.17520      .   S
    C6     O192      1.17520      .   S
    C164   O193      0.63793      .   S
    C98    O193      0.63793      .   S
    C165   O194      1.17527      .   S
    C7     O194      1.17527      .   S
    C165   O195      0.63792      .   S
    C99    O195      0.63792      .   S
    C6     O196      1.17522  1_655   S
    C167   O196      1.17522      .   S
    C6     O197      1.11878      .   S
    C176   O197      1.11878      .   S
    C6     O198      1.12121  1_554   S
    C155   O198      1.12121  1_455   S
    C7     O199      1.17535      .   S
    C166   O199      1.17535      .   S
    C7     O200      1.11882      .   S
    C177   O200      1.11882      .   S
    C7     O201      1.12129  1_554   S
    C154   O201      1.12129      .   S
    C37    O202      0.54536      .   S
    C115   O202      0.54536  1_556   S
    C36    O203      0.54537      .   S
    C114   O203      0.54537  1_556   S
    C93    O204      0.71105      .   S
    C95    O204      0.71105      .   S
    C93    O205      0.54374      .   S
    C27    O205      0.54374  1_556   S
    C92    O206      0.71105      .   S
    C94    O206      0.71105      .   S
    C92    O207      0.54374      .   S
    C26    O207      0.54374  1_556   S
    C178   O208      0.63686      .   S
    C128   O208      0.63686      .   S
    C178   O209      1.12348      .   S
    C0     O209      1.12348  1_556   S
    C179   O210      0.63687      .   S
    C129   O210      0.63687      .   S
    C179   O211      1.12346      .   S
    C1     O211      1.12346  1_556   S
    C22    O212      0.54532      .   S
    C88    O212      0.54532      .   S
    C23    O213      0.54532      .   S
    C89    O213      0.54532      .   S
    C99    O214      0.64630      .   S
    C167   O214      0.64630      .   S
    C99    O215      0.74374      .   S
    C97    O215      0.74374      .   S
    C98    O216      0.64630      .   S
    C166   O216      0.64630      .   S
    C98    O217      0.74372      .   S
    C96    O217      0.74372      .   S
    C88    O218      0.68905      .   S
    C86    O218      0.68905      .   S
    C89    O219      0.68905      .   S
    C87    O219      0.68905      .   S
    C95    O220      0.71733  1_545   S
    C97    O220      0.71733      .   S
    C95    O221      0.72199      .   S
    C85    O221      0.72199      .   S
    C94    O222      0.71732  1_545   S
    C96    O222      0.71732      .   S
    C94    O223      0.72200      .   S
    C84    O223      0.72200      .   S
    C55    O224      0.54473      .   S
    C151   O224      0.54473      .   S
    C54    O225      0.54473      .   S
    C150   O225      0.54473      .   S
    C128   O226      0.63781      .   S
    C176   O226      0.63781      .   S
    C128   O227      0.75394      .   S
    C130   O227      0.75394      .   S
    C129   O228      0.63781      .   S
    C177   O228      0.63781      .   S
    C129   O229      0.75395      .   S
    C131   O229      0.75395      .   S
    C97    O230      0.69474      .   S
    C101   O230      0.69474      .   S
    C96    O231      0.69474      .   S
    C100   O231      0.69474      .   S
    C86    O232      0.71096      .   S
    C84    O232      0.71096      .   S
    C86    O233      0.54360      .   S
    C20    O233      0.54360      .   S
    C87    O234      0.71096      .   S
    C85    O234      0.71096      .   S
    C87    O235      0.54360      .   S
    C21    O235      0.54360      .   S
    C151   O236      0.69252      .   S
    C131   O236      0.69252      .   S
    C151   O237      0.70146      .   S
    C149   O237      0.70146      .   S
    C150   O238      0.69251      .   S
    C130   O238      0.69251      .   S
    C150   O239      0.70146      .   S
    C148   O239      0.70146      .   S
    C84    O240      0.71549      .   S
    C82    O240      0.71549      .   S
    C85    O241      0.71550      .   S
    C83    O241      0.71550      .   S
    C131   O242      0.71543      .   S
    C133   O242      0.71543      .   S
    C130   O243      0.71543      .   S
    C132   O243      0.71543      .   S
    C101   O244      0.54458      .   S
    C29    O244      0.54458      .   S
    C101   O245      0.70130      .   S
    C103   O245      0.70130      .   S
    C100   O246      0.54458      .   S
    C28    O246      0.54458      .   S
    C100   O247      0.70130      .   S
    C102   O247      0.70130      .   S
    C53    O248      0.54458      .   S
    C149   O248      0.54458      .   S
    C52    O249      0.54458      .   S
    C148   O249      0.54458      .   S
    C149   O250      0.69480      .   S
    C145   O250      0.69480      .   S
    C148   O251      0.69479      .   S
    C144   O251      0.69479      .   S
    C44    O252      0.54365      .   S
    C134   O252      0.54365      .   S
    C45    O253      0.54365      .   S
    C135   O253      0.54365      .   S
    C82    O254      0.69242      .   S
    C102   O254      0.69242  1_565   S
    C82    O255      0.75358      .   S
    C80    O255      0.75358      .   S
    C83    O256      0.69242      .   S
    C103   O256      0.69242  1_565   S
    C83    O257      0.75357      .   S
    C81    O257      0.75357      .   S
    C133   O258      0.71095      .   S
    C135   O258      0.71095      .   S
    C133   O259      0.72197      .   S
    C143   O259      0.72197      .   S
    C132   O260      0.71095      .   S
    C134   O260      0.71095      .   S
    C132   O261      0.72198      .   S
    C142   O261      0.72198      .   S
    C103   O262      0.54472      .   S
    C31    O262      0.54472      .   S
    C102   O263      0.54471      .   S
    C30    O263      0.54471      .   S
    C134   O264      0.68902      .   S
    C136   O264      0.68902      .   S
    C135   O265      0.68903      .   S
    C137   O265      0.68903      .   S
    C145   O266      0.71778      .   S
    C143   O266      0.71778      .   S
    C145   O267      0.74359      .   S
    C147   O267      0.74359      .   S
    C144   O268      0.71778      .   S
    C142   O268      0.71778      .   S
    C144   O269      0.74360      .   S
    C146   O269      0.74360      .   S
    C160   O270      0.63768      .   S
    C80    O270      0.63768      .   S
    C160   O271      1.11977      .   S
    C2     O271      1.11977      .   S
    C161   O272      0.63769      .   S
    C81    O272      0.63769      .   S
    C161   O273      1.11975      .   S
    C3     O273      1.11975      .   S
    C80    O274      0.63703      .   S
    C162   O274      0.63703      .   S
    C81    O275      0.63702      .   S
    C163   O275      0.63702      .   S
    C143   O276      0.71106      .   S
    C141   O276      0.71106      .   S
    C142   O277      0.71106      .   S
    C140   O277      0.71106      .   S
    C136   O278      0.54532      .   S
    C46    O278      0.54532      .   S
    C136   O279      0.70612      .   S
    C138   O279      0.70612      .   S
    C137   O280      0.54532      .   S
    C47    O280      0.54532      .   S
    C137   O281      0.70613      .   S
    C139   O281      0.70613      .   S
    C183   O282      0.64576      .   S
    C147   O282      0.64576      .   S
    C183   O283      1.16781      .   S
    C2     O283      1.16781      .   S
    C182   O284      0.64576      .   S
    C146   O284      0.64576      .   S
    C182   O285      1.16773      .   S
    C3     O285      1.16773  1_455   S
    C147   O286      0.63859      .   S
    C181   O286      0.63859      .   S
    C146   O287      0.63858      .   S
    C180   O287      0.63858      .   S
    C162   O288      1.12106      .   S
    C4     O288      1.12106      .   S
    C163   O289      1.12110      .   S
    C5     O289      1.12110      .   S
    C141   O290      0.68982      .   S
    C139   O290      0.68982      .   S
    C141   O291      0.54361      .   S
    C51    O291      0.54361      .   S
    C140   O292      0.68982      .   S
    C138   O292      0.68982      .   S
    C140   O293      0.54361      .   S
    C50    O293      0.54361      .   S
    C12    O294      0.54524      .   S
    C66    O294      0.54524      .   S
    C13    O295      0.52264      .   S
    C67    O295      0.52264      .   S
    C2     O296      1.17446      .   S
    C180   O296      1.17446      .   S
    C2     O297      1.12343      .   S
    C171   O297      1.12343      .   S
    C3     O298      1.17444      .   S
    C181   O298      1.17444      .   S
    C3     O299      1.12341      .   S
    C170   O299      1.12341  1_655   S
    C139   O300      0.54524      .   S
    C49    O300      0.54524      .   S
    C138   O301      0.54524      .   S
    C48    O301      0.54524      .   S
    C14    O302      0.54364      .   S
    C68    O302      0.54364      .   S
    C15    O303      0.53924      .   S
    C69    O303      0.53924      .   S
    C66    O304      0.68974      .   S
    C68    O304      0.68974      .   S
    C66    O305      0.70615      .   S
    C64    O305      0.70615      .   S
    C67    O306      0.68090      .   S
    C69    O306      0.68090      .   S
    C67    O307      0.70112      .   S
    C65    O307      0.70112      .   S
    C156   O308      1.17517      .   S
    C4     O308      1.17517      .   S
    C156   O309      0.63785  1_655   S
    C75    O309      0.63785      .   S
    C157   O310      1.17521      .   S
    C5     O310      1.17521      .   S
    C157   O311      0.63794      .   S
    C74    O311      0.63794      .   S
    C4     O312      1.17555      .   S
    C158   O312      1.17555      .   S
    C4     O313      1.11861      .   S
    C168   O313      1.11861      .   S
    C5     O314      1.17552      .   S
    C159   O314      1.17552      .   S
    C5     O315      1.11866      .   S
    C169   O315      1.11866      .   S
    C68    O316      0.71105      .   S
    C70    O316      0.71105      .   S
    C69    O317      0.71105      .   S
    C71    O317      0.71105      .   S
    C171   O318      0.63685      .   S
    C105   O318      0.63685      .   S
    C170   O319      0.63685      .   S
    C104   O319      0.63685      .   S
    C10    O320      0.54532      .   S
    C64    O320      0.54532      .   S
    C11    O321      0.53861      .   S
    C65    O321      0.53861      .   S
    C75    O322      0.64628      .   S
    C159   O322      0.64628      .   S
    C75    O323      0.74372      .   S
    C73    O323      0.74372      .   S
    C74    O324      0.64627      .   S
    C158   O324      0.64627      .   S
    C74    O325      0.74373      .   S
    C72    O325      0.74373      .   S
    C64    O326      0.68907      .   S
    C62    O326      0.68907      .   S
    C65    O327      0.68452      .   S
    C63    O327      0.68452      .   S
    C70    O328      0.71731  1_565   S
    C72    O328      0.71731      .   S
    C70    O329      0.72198      .   S
    C60    O329      0.72198      .   S
    C71    O330      0.71731  1_565   S
    C73    O330      0.71731      .   S
    C71    O331      0.72199      .   S
    C61    O331      0.72199      .   S
    C43    O332      0.54473      .   S
    C127   O332      0.54473      .   S
    C42    O333      0.54472      .   S
    C126   O333      0.54472      .   S
    C105   O334      0.63784      .   S
    C169   O334      0.63784      .   S
    C105   O335      0.75397      .   S
    C107   O335      0.75397      .   S
    C104   O336      0.63783      .   S
    C168   O336      0.63783      .   S
    C104   O337      0.75395      .   S
    C106   O337      0.75395      .   S
    C73    O338      0.69474      .   S
    C77    O338      0.69474      .   S
    C72    O339      0.69473      .   S
    C76    O339      0.69473      .   S
    C62    O340      0.71096      .   S
    C60    O340      0.71096      .   S
    C62    O341      0.54359      .   S
    C8     O341      0.54359      .   S
    C63    O342      0.71096      .   S
    C61    O342      0.71096      .   S
    C63    O343      0.54359      .   S
    C9     O343      0.54359      .   S
    C127   O344      0.69252      .   S
    C107   O344      0.69252      .   S
    C127   O345      0.70148      .   S
    C125   O345      0.70148      .   S
    C126   O346      0.69252      .   S
    C106   O346      0.69252      .   S
    C126   O347      0.70146      .   S
    C124   O347      0.70146      .   S
    C60    O348      0.71552      .   S
    C58    O348      0.71552      .   S
    C61    O349      0.71551      .   S
    C59    O349      0.71551      .   S
    C107   O350      0.71544      .   S
    C109   O350      0.71544      .   S
    C106   O351      0.71545      .   S
    C108   O351      0.71545      .   S
    C77    O352      0.54458      .   S
    C17    O352      0.54458      .   S
    C77    O353      0.70130      .   S
    C79    O353      0.70130      .   S
    C76    O354      0.54458      .   S
    C16    O354      0.54458      .   S
    C76    O355      0.70131      .   S
    C78    O355      0.70131      .   S
    C41    O356      0.54458      .   S
    C125   O356      0.54458      .   S
    C40    O357      0.54458      .   S
    C124   O357      0.54458      .   S
    C125   O358      0.69477      .   S
    C121   O358      0.69477      .   S
    C124   O359      0.69476      .   S
    C120   O359      0.69476      .   S
    C33    O360      0.54365      .   S
    C111   O360      0.54365      .   S
    C32    O361      0.54366      .   S
    C110   O361      0.54366      .   S
    C59    O362      0.69243      .   S
    C79    O362      0.69243  1_545   S
    C59    O363      0.75359      .   S
    C57    O363      0.75359      .   S
    C58    O364      0.69244      .   S
    C78    O364      0.69244  1_545   S
    C58    O365      0.75359      .   S
    C56    O365      0.75359      .   S
    C109   O366      0.71095      .   S
    C111   O366      0.71095      .   S
    C109   O367      0.72196      .   S
    C119   O367      0.72196      .   S
    C108   O368      0.71095      .   S
    C110   O368      0.71095      .   S
    C108   O369      0.72197      .   S
    C118   O369      0.72197      .   S
    C79    O370      0.54473      .   S
    C19    O370      0.54473      .   S
    C78    O371      0.54472      .   S
    C18    O371      0.54472      .   S
    C111   O372      0.68904      .   S
    C113   O372      0.68904      .   S
    C110   O373      0.68904      .   S
    C112   O373      0.68904  1_455   S
    C121   O374      0.71775      .   S
    C119   O374      0.71775      .   S
    C121   O375      0.74354      .   S
    C123   O375      0.74354      .   S
    C120   O376      0.71775      .   S
    C118   O376      0.71775      .   S
    C120   O377      0.74355      .   S
    C122   O377      0.74355      .   S
    C152   O378      0.63770      .   S
    C56    O378      0.63770      .   S
    C152   O379      1.11965      .   S
    C0     O379      1.11965      .   S
    C153   O380      0.63770      .   S
    C57    O380      0.63770      .   S
    C153   O381      1.11966      .   S
    C1     O381      1.11966      .   S
    C56    O382      0.63702      .   S
    C154   O382      0.63702      .   S
    C57    O383      0.63702      .   S
    C155   O383      0.63702      .   S
    C119   O384      0.71106      .   S
    C117   O384      0.71106      .   S
    C118   O385      0.71106      .   S
    C116   O385      0.71106      .   S
    C113   O386      0.54532      .   S
    C35    O386      0.54532      .   S
    C113   O387      0.70613      .   S
    C115   O387      0.70613      .   S
    C112   O388      0.54533      .   S
    C34    O388      0.54533      .   S
    C112   O389      0.70613      .   S
    C114   O389      0.70613      .   S
    C175   O390      0.64574      .   S
    C123   O390      0.64574      .   S
    C175   O391      1.16796      .   S
    C1     O391      1.16796      .   S
    C174   O392      0.64575      .   S
    C122   O392      0.64575      .   S
    C174   O393      1.16791      .   S
    C0     O393      1.16791      .   S
    C123   O394      0.63860      .   S
    C172   O394      0.63860      .   S
    C122   O395      0.63851      .   S
    C173   O395      0.63851  1_455   S
    C117   O396      0.68980      .   S
    C115   O396      0.68980      .   S
    C116   O397      0.68981  1_655   S
    C114   O397      0.68981      .   S
    C0     O398      1.17436      .   S
    C172   O398      1.17436      .   S
    C1     O399      1.17444      .   S
    C173   O399      1.17444      .   S
    C158   O400      1.19585      .   S
    C2     O400      1.19585      .   S
    C159   O401      1.19582      .   S
    C3     O401      1.19582      .   S
    C166   O402      1.19595      .   S
    C0     O402      1.19595  1_556   S
    C167   O403      1.19593      .   S
    C1     O403      1.19593  1_556   S
    C174   O404      1.20723      .   S
    C6     O404      1.20723  1_554   S
    C175   O405      1.20729      .   S
    C7     O405      1.20729  1_554   S
    C182   O406      1.20719      .   S
    C4     O406      1.20719      .   S
    C183   O407      1.20722      .   S
    C5     O407      1.20722      .   S
