# CIF file generated by openbabel 2.4.90, see http://openbabel.sf.net
data_I
_chemical_name_common ''
_cell_length_a 22.522
_cell_length_b 16.308
_cell_length_c 14.511
_cell_angle_alpha 89.989
_cell_angle_beta 95.208
_cell_angle_gamma 89.979
_space_group_name_H-M_alt 'P 1'
_space_group_name_Hall 'P 1'
loop_
    _symmetry_equiv_pos_as_xyz
    x,y,z
loop_
    _atom_site_label
    _atom_site_type_symbol
    _atom_site_fract_x
    _atom_site_fract_y
    _atom_site_fract_z
    _atom_site_occupancy
    Zn0     Zn   0.70009   0.68385   0.11360   1.000
    Zn1     Zn   0.04981   0.18386   0.88637   1.000
    Zn2     Zn   0.54981   0.18386   0.88637   1.000
    Zn3     Zn   0.29989   0.31616   0.88630   1.000
    Zn4     Zn   0.79988   0.31616   0.88632   1.000
    Zn5     Zn   0.45017   0.81615   0.11358   1.000
    Zn6     Zn   0.95017   0.81615   0.11357   1.000
    Zn7     Zn   0.20010   0.68386   0.11363   1.000
