# CIF file generated by openbabel 2.4.90, see http://openbabel.sf.net
data_I
_chemical_name_common ''
_cell_length_a 22.522
_cell_length_b 16.308
_cell_length_c 14.511
_cell_angle_alpha 89.989
_cell_angle_beta 95.208
_cell_angle_gamma 89.979
_space_group_name_H-M_alt 'P 1'
_space_group_name_Hall 'P 1'
loop_
    _symmetry_equiv_pos_as_xyz
    x,y,z
loop_
    _atom_site_label
    _atom_site_type_symbol
    _atom_site_fract_x
    _atom_site_fract_y
    _atom_site_fract_z
    _atom_site_occupancy
    C0      C    0.20010   0.68386   0.11363   1.000
    C1      C    0.70009   0.68385   0.11360   1.000
    C2      C    0.04981   0.18386   0.88637   1.000
    C3      C    0.54981   0.18386   0.88637   1.000
    C4      C    0.29989   0.31616   0.88630   1.000
    C5      C    0.79988   0.31616   0.88632   1.000
    C6      C    0.45017   0.81615   0.11358   1.000
    C7      C    0.95017   0.81615   0.11357   1.000
    C8      C    0.11723   0.60274   0.26406   1.000
    C9      C    0.61722   0.60270   0.26405   1.000
    C10     C    0.22598   0.81211   0.29173   1.000
    C11     C    0.72596   0.81207   0.29178   1.000
    C12     C    0.21377   0.84058   0.46630   1.000
    C13     C    0.71374   0.84049   0.46638   1.000
    C14     C    0.18014   0.76179   0.52752   1.000
    C15     C    0.68007   0.76170   0.52756   1.000
    C16     C    0.08068   0.84467   0.33508   1.000
    C17     C    0.58065   0.84462   0.33511   1.000
    C18     C    0.99924   0.93973   0.35135   1.000
    C19     C    0.49922   0.93972   0.35136   1.000
    C20     C    0.06427   0.98000   0.63737   1.000
    C21     C    0.56425   0.97999   0.63730   1.000
    C22     C    0.14515   0.88449   0.62024   1.000
    C23     C    0.64512   0.88443   0.62027   1.000
    C24     C    0.41248   0.41962   0.51001   1.000
    C25     C    0.91249   0.41959   0.51001   1.000
    C26     C    0.35577   0.39683   0.36200   1.000
    C27     C    0.85578   0.39681   0.36200   1.000
    C28     C    0.98818   0.52728   0.22300   1.000
    C29     C    0.48819   0.52725   0.22000   1.000
    C30     C    0.04488   0.55275   0.37150   1.000
    C31     C    0.54489   0.55272   0.37153   1.000
    C32     C    0.40724   0.43805   0.13330   1.000
    C33     C    0.90723   0.43806   0.13330   1.000
    C34     C    0.34700   0.40183   0.19297   1.000
    C35     C    0.84699   0.40184   0.19297   1.000
    C36     C    0.25229   0.49207   0.15073   1.000
    C37     C    0.75228   0.49208   0.15074   1.000
    C38     C    0.33973   0.71735   0.12374   1.000
    C39     C    0.83972   0.71736   0.12376   1.000
    C40     C    0.15942   0.91377   0.98296   1.000
    C41     C    0.65941   0.91379   0.98303   1.000
    C42     C    0.13251   0.10265   0.73581   1.000
    C43     C    0.63252   0.10266   0.73580   1.000
    C44     C    0.02395   0.31233   0.70825   1.000
    C45     C    0.52395   0.31232   0.70824   1.000
    C46     C    0.03617   0.34083   0.53363   1.000
    C47     C    0.53619   0.34085   0.53365   1.000
    C48     C    0.06979   0.26200   0.47244   1.000
    C49     C    0.56980   0.26202   0.47245   1.000
    C50     C    0.16937   0.34452   0.66478   1.000
    C51     C    0.66933   0.34464   0.66484   1.000
    C52     C    0.25083   0.43949   0.64850   1.000
    C53     C    0.75078   0.43961   0.64858   1.000
    C54     C    0.18558   0.48030   0.36264   1.000
    C55     C    0.68568   0.48017   0.36260   1.000
    C56     C    0.10470   0.38487   0.37977   1.000
    C57     C    0.60479   0.38476   0.37970   1.000
    C58     C    0.33754   0.91967   0.48992   1.000
    C59     C    0.83759   0.91964   0.49000   1.000
    C60     C    0.39424   0.89686   0.63796   1.000
    C61     C    0.89429   0.89684   0.63807   1.000
    C62     C    0.26170   0.02723   0.77686   1.000
    C63     C    0.76170   0.02708   0.77699   1.000
    C64     C    0.20503   0.05273   0.62832   1.000
    C65     C    0.70501   0.05255   0.62840   1.000
    C66     C    0.34270   0.93812   0.86660   1.000
    C67     C    0.84274   0.93805   0.86673   1.000
    C68     C    0.40296   0.90180   0.80703   1.000
    C69     C    0.90300   0.90175   0.80715   1.000
    C70     C    0.49765   0.99193   0.84954   1.000
    C71     C    0.99768   0.99192   0.84961   1.000
    C72     C    0.41020   0.21736   0.87585   1.000
    C73     C    0.91019   0.21732   0.87590   1.000
    C74     C    0.09056   0.41370   0.01731   1.000
    C75     C    0.59056   0.41370   0.01729   1.000
    C76     C    0.38276   0.39732   0.73589   1.000
    C77     C    0.88274   0.39728   0.73588   1.000
    C78     C    0.27402   0.18795   0.70814   1.000
    C79     C    0.77399   0.18791   0.70820   1.000
    C80     C    0.28624   0.15953   0.53354   1.000
    C81     C    0.78621   0.15944   0.53362   1.000
    C82     C    0.31990   0.23832   0.47237   1.000
    C83     C    0.81984   0.23823   0.47241   1.000
    C84     C    0.41933   0.15541   0.66482   1.000
    C85     C    0.91930   0.15535   0.66485   1.000
    C86     C    0.50075   0.06031   0.64857   1.000
    C87     C    0.00000   0.06029   0.64858   1.000
    C88     C    0.43572   0.02005   0.36254   1.000
    C89     C    0.93571   0.02003   0.36255   1.000
    C90     C    0.35486   0.11560   0.37965   1.000
    C91     C    0.85483   0.11555   0.37968   1.000
    C92     C    0.08750   0.58043   0.48994   1.000
    C93     C    0.58751   0.58040   0.48993   1.000
    C94     C    0.14421   0.60321   0.63790   1.000
    C95     C    0.64421   0.60319   0.63794   1.000
    C96     C    0.51178   0.47280   0.77695   1.000
    C97     C    0.00000   0.47277   0.77695   1.000
    C98     C    0.45508   0.44733   0.62840   1.000
    C99     C    0.95509   0.44731   0.62841   1.000
    C100    C    0.09275   0.56197   0.86661   1.000
    C101    C    0.59274   0.56197   0.86661   1.000
    C102    C    0.15299   0.59819   0.80697   1.000
    C103    C    0.65299   0.59820   0.80697   1.000
    C104    C    0.24770   0.50794   0.84920   1.000
    C105    C    0.74769   0.50794   0.84921   1.000
    C106    C    0.16026   0.28267   0.87617   1.000
    C107    C    0.66024   0.28267   0.87619   1.000
    C108    C    0.34057   0.08623   0.01690   1.000
    C109    C    0.84056   0.08625   0.01697   1.000
    C110    C    0.36745   0.89736   0.26410   1.000
    C111    C    0.86747   0.89737   0.26411   1.000
    C112    C    0.47603   0.68770   0.29171   1.000
    C113    C    0.97603   0.68770   0.29170   1.000
    C114    C    0.46379   0.65920   0.46630   1.000
    C115    C    0.96381   0.65922   0.46632   1.000
    C116    C    0.43017   0.73802   0.52700   1.000
    C117    C    0.93018   0.73804   0.52750   1.000
    C118    C    0.33065   0.65541   0.33511   1.000
    C119    C    0.83060   0.65552   0.33517   1.000
    C120    C    0.24920   0.56043   0.35137   1.000
    C121    C    0.74915   0.56055   0.35144   1.000
    C122    C    0.31430   0.51987   0.63734   1.000
    C123    C    0.81441   0.51973   0.63730   1.000
    C124    C    0.39519   0.61528   0.62021   1.000
    C125    C    0.89528   0.61517   0.62017   1.000
    C126    C    0.16238   0.08039   0.50980   1.000
    C127    C    0.66243   0.08036   0.51000   1.000
    C128    C    0.10568   0.10319   0.36185   1.000
    C129    C    0.60573   0.10317   0.36196   1.000
    C130    C    0.23827   0.97295   0.22293   1.000
    C131    C    0.73827   0.97279   0.22306   1.000
    C132    C    0.29496   0.94748   0.37148   1.000
    C133    C    0.79494   0.94730   0.37160   1.000
    C134    C    0.15722   0.06197   0.13319   1.000
    C135    C    0.65726   0.06191   0.13332   1.000
    C136    C    0.09697   0.09827   0.19277   1.000
    C137    C    0.59701   0.09823   0.19289   1.000
    C138    C    0.00229   0.00809   0.15030   1.000
    C139    C    0.50232   0.00809   0.15038   1.000
    C140    C    0.08979   0.78270   0.12403   1.000
    C141    C    0.58977   0.78267   0.12408   1.000
    C142    C    0.40941   0.58632   0.98264   1.000
    C143    C    0.90941   0.58631   0.98260   1.000
    C144    C    0.13946   0.65664   0.29397   1.000
    C145    C    0.63944   0.65659   0.29398   1.000
    C146    C    0.19555   0.76314   0.30604   1.000
    C147    C    0.69552   0.76310   0.30600   1.000
    C148    C    0.17327   0.80316   0.46773   1.000
    C149    C    0.67323   0.80309   0.46778   1.000
    C150    C    0.11963   0.85778   0.47600   1.000
    C151    C    0.61960   0.85772   0.47604   1.000
    C152    C    0.07745   0.87433   0.40170   1.000
    C153    C    0.57742   0.87428   0.40173   1.000
    C154    C    0.03090   0.92911   0.41137   1.000
    C155    C    0.53089   0.92909   0.41138   1.000
    C156    C    0.02448   0.97009   0.49531   1.000
    C157    C    0.52447   0.97008   0.49532   1.000
    C158    C    0.06676   0.95138   0.57006   1.000
    C159    C    0.56674   0.95136   0.57000   1.000
    C160    C    0.11312   0.89640   0.56070   1.000
    C161    C    0.61309   0.89636   0.56073   1.000
    C162    C    0.48327   0.49062   0.45467   1.000
    C163    C    0.98327   0.49062   0.45467   1.000
    C164    C    0.43003   0.44475   0.44856   1.000
    C165    C    0.93004   0.44474   0.44856   1.000
    C166    C    0.39760   0.43084   0.36364   1.000
    C167    C    0.89760   0.43083   0.36364   1.000
    C168    C    0.41723   0.46092   0.28140   1.000
    C169    C    0.91722   0.46092   0.28140   1.000
    C170    C    0.47140   0.50366   0.28592   1.000
    C171    C    0.97139   0.50369   0.28593   1.000
    C172    C    0.00344   0.51837   0.37088   1.000
    C173    C    0.50345   0.51835   0.37088   1.000
    C174    C    0.37983   0.45126   0.19043   1.000
    C175    C    0.87982   0.45126   0.19044   1.000
    C176    C    0.28679   0.53834   0.14868   1.000
    C177    C    0.78678   0.53835   0.14800   1.000
    C178    C    0.33262   0.65253   0.13516   1.000
    C179    C    0.83260   0.65254   0.13510   1.000
    C180    C    0.24807   0.83782   0.08376   1.000
    C181    C    0.74807   0.83786   0.08385   1.000
    C182    C    0.25146   0.91930   0.03563   1.000
    C183    C    0.75145   0.91932   0.03500   1.000
    C184    C    0.30338   0.96812   0.04448   1.000
    C185    C    0.80337   0.96814   0.04453   1.000
    C186    C    0.19927   0.95175   0.98985   1.000
    C187    C    0.69926   0.95177   0.98991   1.000
    C188    C    0.36311   0.93619   0.08425   1.000
    C189    C    0.86311   0.93620   0.08428   1.000
    C190    C    0.11033   0.15663   0.70593   1.000
    C191    C    0.61034   0.15664   0.70594   1.000
    C192    C    0.05435   0.26329   0.69392   1.000
    C193    C    0.55435   0.26330   0.69392   1.000
    C194    C    0.07666   0.30335   0.53223   1.000
    C195    C    0.57668   0.30336   0.53224   1.000
    C196    C    0.13031   0.35790   0.52394   1.000
    C197    C    0.63034   0.35790   0.52395   1.000
    C198    C    0.17256   0.37428   0.59800   1.000
    C199    C    0.67255   0.37435   0.59820   1.000
    C200    C    0.21911   0.42901   0.58852   1.000
    C201    C    0.71910   0.42907   0.58850   1.000
    C202    C    0.22548   0.47012   0.50462   1.000
    C203    C    0.72551   0.47011   0.50464   1.000
    C204    C    0.18314   0.45157   0.42992   1.000
    C205    C    0.68321   0.45150   0.42990   1.000
    C206    C    0.13678   0.39665   0.43928   1.000
    C207    C    0.63684   0.39658   0.43927   1.000
    C208    C    0.26669   0.99066   0.54521   1.000
    C209    C    0.76671   0.99056   0.54533   1.000
    C210    C    0.31996   0.94480   0.55136   1.000
    C211    C    0.82000   0.94473   0.55147   1.000
    C212    C    0.35239   0.93087   0.63629   1.000
    C213    C    0.85243   0.93081   0.63641   1.000
    C214    C    0.33273   0.96093   0.71852   1.000
    C215    C    0.83276   0.96085   0.71864   1.000
    C216    C    0.27853   0.00000   0.71396   1.000
    C217    C    0.77854   0.00000   0.71408   1.000
    C218    C    0.24649   0.01837   0.62899   1.000
    C219    C    0.74650   0.01823   0.62911   1.000
    C220    C    0.37013   0.95126   0.80951   1.000
    C221    C    0.87016   0.95120   0.80962   1.000
    C222    C    0.46316   0.03826   0.85140   1.000
    C223    C    0.96318   0.03824   0.85146   1.000
    C224    C    0.41731   0.15252   0.86457   1.000
    C225    C    0.91731   0.15248   0.86463   1.000
    C226    C    0.50195   0.33764   0.91664   1.000
    C227    C    0.00000   0.33763   0.91667   1.000
    C228    C    0.49853   0.41922   0.96454   1.000
    C229    C    0.99853   0.41921   0.96455   1.000
    C230    C    0.44661   0.46809   0.95549   1.000
    C231    C    0.94661   0.46808   0.95549   1.000
    C232    C    0.05072   0.45172   0.01025   1.000
    C233    C    0.55071   0.45172   0.01024   1.000
    C234    C    0.38688   0.43616   0.91572   1.000
    C235    C    0.88688   0.43615   0.91572   1.000
    C236    C    0.36053   0.34343   0.70596   1.000
    C237    C    0.86051   0.34338   0.70596   1.000
    C238    C    0.30445   0.23692   0.69380   1.000
    C239    C    0.80442   0.23688   0.69389   1.000
    C240    C    0.32675   0.19694   0.53215   1.000
    C241    C    0.82670   0.19686   0.53220   1.000
    C242    C    0.38038   0.14230   0.52389   1.000
    C243    C    0.88034   0.14225   0.52392   1.000
    C244    C    0.42256   0.12574   0.59820   1.000
    C245    C    0.92253   0.12570   0.59823   1.000
    C246    C    0.46909   0.07094   0.58855   1.000
    C247    C    0.96907   0.07091   0.58856   1.000
    C248    C    0.47551   0.02995   0.50461   1.000
    C249    C    0.97550   0.02994   0.50462   1.000
    C250    C    0.43324   0.04868   0.42985   1.000
    C251    C    0.93322   0.04865   0.42987   1.000
    C252    C    0.38689   0.10367   0.43920   1.000
    C253    C    0.88686   0.10363   0.43920   1.000
    C254    C    0.01670   0.50942   0.54527   1.000
    C255    C    0.51670   0.50942   0.54527   1.000
    C256    C    0.06994   0.55529   0.55139   1.000
    C257    C    0.56995   0.55528   0.55138   1.000
    C258    C    0.10238   0.56920   0.63630   1.000
    C259    C    0.60238   0.56919   0.63630   1.000
    C260    C    0.08275   0.53911   0.71855   1.000
    C261    C    0.58275   0.53912   0.71855   1.000
    C262    C    0.02859   0.49636   0.71402   1.000
    C263    C    0.52858   0.49638   0.71402   1.000
    C264    C    0.49653   0.48169   0.62907   1.000
    C265    C    0.99653   0.48168   0.62907   1.000
    C266    C    0.12016   0.54877   0.80951   1.000
    C267    C    0.62015   0.54877   0.80951   1.000
    C268    C    0.21320   0.46167   0.85125   1.000
    C269    C    0.71319   0.46168   0.85126   1.000
    C270    C    0.16737   0.34748   0.86476   1.000
    C271    C    0.66736   0.34749   0.86477   1.000
    C272    C    0.25191   0.16217   0.91609   1.000
    C273    C    0.75191   0.16220   0.91618   1.000
    C274    C    0.24852   0.08069   0.96423   1.000
    C275    C    0.74852   0.08072   0.96400   1.000
    C276    C    0.19661   0.03188   0.95500   1.000
    C277    C    0.69660   0.03190   0.95545   1.000
    C278    C    0.30072   0.04824   0.01002   1.000
    C279    C    0.80071   0.04827   0.01008   1.000
    C280    C    0.13687   0.06381   0.91560   1.000
    C281    C    0.63686   0.06382   0.91568   1.000
    C282    C    0.38963   0.84339   0.29399   1.000
    C283    C    0.88964   0.84340   0.29400   1.000
    C284    C    0.44563   0.73673   0.30602   1.000
    C285    C    0.94563   0.73674   0.30602   1.000
    C286    C    0.42330   0.69668   0.46771   1.000
    C287    C    0.92332   0.69669   0.46770   1.000
    C288    C    0.36965   0.64214   0.47599   1.000
    C289    C    0.86967   0.64214   0.47600   1.000
    C290    C    0.32743   0.62569   0.40171   1.000
    C291    C    0.82742   0.62575   0.40175   1.000
    C292    C    0.28088   0.57097   0.41138   1.000
    C293    C    0.78087   0.57103   0.41142   1.000
    C294    C    0.27447   0.52993   0.49530   1.000
    C295    C    0.77450   0.52992   0.49532   1.000
    C296    C    0.31677   0.54854   0.57004   1.000
    C297    C    0.81684   0.54847   0.57003   1.000
    C298    C    0.36314   0.60345   0.56060   1.000
    C299    C    0.86320   0.60339   0.56066   1.000
    C300    C    0.23326   0.00947   0.45459   1.000
    C301    C    0.73328   0.00937   0.45471   1.000
    C302    C    0.17997   0.05530   0.44845   1.000
    C303    C    0.68001   0.05523   0.44856   1.000
    C304    C    0.14754   0.06921   0.36351   1.000
    C305    C    0.64758   0.06916   0.36363   1.000
    C306    C    0.16721   0.03918   0.28128   1.000
    C307    C    0.66724   0.03910   0.28140   1.000
    C308    C    0.22143   0.99648   0.28584   1.000
    C309    C    0.72144   0.99636   0.28596   1.000
    C310    C    0.25347   0.98180   0.37081   1.000
    C311    C    0.75348   0.98166   0.37090   1.000
    C312    C    0.12981   0.04882   0.19030   1.000
    C313    C    0.62984   0.04876   0.19042   1.000
    C314    C    0.03679   0.96178   0.14846   1.000
    C315    C    0.53681   0.96176   0.14853   1.000
    C316    C    0.08266   0.84754   0.13530   1.000
    C317    C    0.58266   0.84751   0.13530   1.000
    C318    C    0.99802   0.66239   0.08326   1.000
    C319    C    0.49802   0.66238   0.08329   1.000
    C320    C    0.00145   0.58081   0.03538   1.000
    C321    C    0.50144   0.58080   0.03540   1.000
    C322    C    0.05337   0.53193   0.04445   1.000
    C323    C    0.55337   0.53193   0.04445   1.000
    C324    C    0.44926   0.54829   0.98970   1.000
    C325    C    0.94926   0.54829   0.98960   1.000
    C326    C    0.11309   0.56386   0.08422   1.000
    C327    C    0.61309   0.56386   0.08422   1.000
    C328    C    0.17764   0.70301   0.24694   1.000
    C329    C    0.67762   0.70298   0.24697   1.000
    C330    C    0.13303   0.68442   0.37825   1.000
    C331    C    0.63300   0.68436   0.37826   1.000
    C332    C    0.16925   0.75243   0.38470   1.000
    C333    C    0.66921   0.75237   0.38482   1.000
    C334    C    0.27698   0.61790   0.12898   1.000
    C335    C    0.77697   0.61791   0.12899   1.000
    C336    C    0.37579   0.59919   0.15787   1.000
    C337    C    0.87578   0.59920   0.15788   1.000
    C338    C    0.34593   0.52683   0.16500   1.000
    C339    C    0.84592   0.52684   0.16590   1.000
    C340    C    0.07220   0.20308   0.75299   1.000
    C341    C    0.57220   0.20308   0.75299   1.000
    C342    C    0.11680   0.18446   0.62168   1.000
    C343    C    0.61681   0.18447   0.62169   1.000
    C344    C    0.08065   0.25258   0.61518   1.000
    C345    C    0.58067   0.25259   0.61510   1.000
    C346    C    0.47296   0.11782   0.87100   1.000
    C347    C    0.97296   0.11781   0.87104   1.000
    C348    C    0.37416   0.09921   0.84180   1.000
    C349    C    0.87416   0.09916   0.84188   1.000
    C350    C    0.40402   0.00000   0.83400   1.000
    C351    C    0.90404   0.00000   0.83409   1.000
    C352    C    0.32235   0.29704   0.75290   1.000
    C353    C    0.82234   0.29701   0.75299   1.000
    C354    C    0.36697   0.31566   0.62168   1.000
    C355    C    0.86694   0.31560   0.62169   1.000
    C356    C    0.33076   0.24765   0.61511   1.000
    C357    C    0.83073   0.24759   0.61510   1.000
    C358    C    0.22301   0.38211   0.87094   1.000
    C359    C    0.72300   0.38212   0.87096   1.000
    C360    C    0.12419   0.40083   0.84206   1.000
    C361    C    0.62418   0.40084   0.84206   1.000
    C362    C    0.15406   0.47319   0.83404   1.000
    C363    C    0.65405   0.47320   0.83405   1.000
    C364    C    0.42778   0.79695   0.24694   1.000
    C365    C    0.92778   0.79695   0.24694   1.000
    C366    C    0.38316   0.81556   0.37824   1.000
    C367    C    0.88318   0.81557   0.37825   1.000
    C368    C    0.41931   0.74745   0.38476   1.000
    C369    C    0.91933   0.74745   0.38476   1.000
    C370    C    0.02701   0.88221   0.12880   1.000
    C371    C    0.52702   0.88220   0.12893   1.000
    C372    C    0.12581   0.90086   0.15804   1.000
    C373    C    0.62582   0.90081   0.15812   1.000
    C374    C    0.09593   0.97326   0.16580   1.000
    C375    C    0.59595   0.97321   0.16593   1.000
    C376    C    0.21282   0.78396   0.04192   1.000
    C377    C    0.71284   0.78398   0.04201   1.000
    C378    C    0.27628   0.82751   0.16143   1.000
    C379    C    0.77627   0.82759   0.16153   1.000
    C380    C    0.37962   0.86811   0.04728   1.000
    C381    C    0.87960   0.86812   0.04731   1.000
    C382    C    0.39368   0.97607   0.14500   1.000
    C383    C    0.89370   0.97608   0.14501   1.000
    C384    C    0.03724   0.28380   0.95859   1.000
    C385    C    0.53723   0.28380   0.95855   1.000
    C386    C    0.47376   0.32723   0.83897   1.000
    C387    C    0.97376   0.32720   0.83900   1.000
    C388    C    0.37037   0.36810   0.95272   1.000
    C389    C    0.87036   0.36811   0.95273   1.000
    C390    C    0.35632   0.47607   0.85495   1.000
    C391    C    0.85632   0.47606   0.85494   1.000
    C392    C    0.28714   0.21604   0.95794   1.000
    C393    C    0.78716   0.21606   0.95802   1.000
    C394    C    0.22371   0.17245   0.83840   1.000
    C395    C    0.72369   0.17253   0.83851   1.000
    C396    C    0.12038   0.13189   0.95264   1.000
    C397    C    0.62036   0.13190   0.95267   1.000
    C398    C    0.10628   0.00000   0.85493   1.000
    C399    C    0.60629   0.00000   0.85494   1.000
    C400    C    0.46274   0.71621   0.04137   1.000
    C401    C    0.96273   0.71622   0.04134   1.000
    C402    C    0.02621   0.67283   0.16092   1.000
    C403    C    0.52621   0.67280   0.16095   1.000
    C404    C    0.12961   0.63191   0.04721   1.000
    C405    C    0.62961   0.63191   0.04722   1.000
    C406    C    0.14365   0.52395   0.14500   1.000
    C407    C    0.64365   0.52394   0.14499   1.000
    O408    O    0.32064   0.06723   0.01346   1.000
    O409    O    0.30205   0.00818   0.02725   1.000
    O410    O    0.27462   0.06447   0.98712   1.000
    O411    O    0.82064   0.06726   0.01352   1.000
    O412    O    0.80204   0.00821   0.02730   1.000
    O413    O    0.77461   0.06449   0.98704   1.000
    O414    O    0.57064   0.43271   0.01376   1.000
    O415    O    0.55204   0.49183   0.02734   1.000
    O416    O    0.52462   0.43547   0.98739   1.000
    O417    O    0.07064   0.43271   0.01378   1.000
    O418    O    0.05204   0.49183   0.02735   1.000
    O419    O    0.02462   0.43547   0.98740   1.000
    O420    O    0.77741   0.94373   0.03976   1.000
    O421    O    0.74976   0.87859   0.05942   1.000
    O422    O    0.72536   0.93555   0.01245   1.000
    O423    O    0.02741   0.55637   0.03991   1.000
    O424    O    0.99973   0.62160   0.05932   1.000
    O425    O    0.97535   0.56455   0.01249   1.000
    O426    O    0.52741   0.55636   0.03992   1.000
    O427    O    0.49973   0.62159   0.05934   1.000
    O428    O    0.47535   0.56455   0.01255   1.000
    O429    O    0.27742   0.94371   0.04006   1.000
    O430    O    0.24976   0.87856   0.05969   1.000
    O431    O    0.22536   0.93552   0.01274   1.000
    O432    O    0.98037   0.68931   0.06230   1.000
    O433    O    0.95645   0.76618   0.07745   1.000
    O434    O    0.48038   0.68930   0.06233   1.000
    O435    O    0.45646   0.76618   0.07747   1.000
    O436    O    0.23044   0.81089   0.06284   1.000
    O437    O    0.20646   0.73391   0.07777   1.000
    O438    O    0.73045   0.81092   0.06293   1.000
    O439    O    0.70646   0.73392   0.07780   1.000
    O440    O    0.08323   0.54790   0.06433   1.000
    O441    O    0.58323   0.54789   0.06433   1.000
    O442    O    0.33325   0.95215   0.06436   1.000
    O443    O    0.83324   0.95217   0.06440   1.000
    O444    O    0.12135   0.59789   0.06571   1.000
    O445    O    0.16486   0.65788   0.08042   1.000
    O446    O    0.62135   0.59788   0.06572   1.000
    O447    O    0.66485   0.65788   0.08041   1.000
    O448    O    0.37137   0.90215   0.06576   1.000
    O449    O    0.41490   0.84213   0.08043   1.000
    O450    O    0.87135   0.90216   0.06579   1.000
    O451    O    0.91488   0.84213   0.08044   1.000
    O452    O    0.01212   0.66761   0.12209   1.000
    O453    O    0.51212   0.66759   0.12212   1.000
    O454    O    0.26217   0.83266   0.12259   1.000
    O455    O    0.76217   0.83272   0.12269   1.000
    O456    O    0.62837   0.54390   0.11460   1.000
    O457    O    0.12837   0.54390   0.11461   1.000
    O458    O    0.37840   0.95613   0.11462   1.000
    O459    O    0.87840   0.95614   0.11464   1.000
    O460    O    0.98859   0.84918   0.12118   1.000
    O461    O    0.93897   0.80655   0.18025   1.000
    O462    O    0.48860   0.84917   0.12125   1.000
    O463    O    0.43897   0.80655   0.18026   1.000
    O464    O    0.73853   0.65088   0.12129   1.000
    O465    O    0.68886   0.69342   0.18028   1.000
    O466    O    0.23854   0.65088   0.12130   1.000
    O467    O    0.18887   0.69343   0.18028   1.000
    O468    O    0.33617   0.68494   0.12945   1.000
    O469    O    0.83616   0.68495   0.12943   1.000
    O470    O    0.08622   0.81512   0.12966   1.000
    O471    O    0.58622   0.81509   0.12969   1.000
    O472    O    0.05484   0.86487   0.13205   1.000
    O473    O    0.03190   0.92199   0.13863   1.000
    O474    O    0.55484   0.86485   0.13211   1.000
    O475    O    0.53191   0.92198   0.13873   1.000
    O476    O    0.30480   0.63522   0.13207   1.000
    O477    O    0.28188   0.57812   0.13883   1.000
    O478    O    0.80479   0.63522   0.13204   1.000
    O479    O    0.78187   0.57813   0.13849   1.000
    O480    O    0.14352   0.05540   0.16174   1.000
    O481    O    0.39353   0.44466   0.16186   1.000
    O482    O    0.89353   0.44466   0.16187   1.000
    O483    O    0.64355   0.05534   0.16187   1.000
    O484    O    0.85419   0.62587   0.14649   1.000
    O485    O    0.35420   0.62586   0.14651   1.000
    O486    O    0.60424   0.87416   0.14671   1.000
    O487    O    0.10423   0.87420   0.14667   1.000
    O488    O    0.76953   0.51521   0.14937   1.000
    O489    O    0.81635   0.53259   0.15695   1.000
    O490    O    0.01954   0.98494   0.14938   1.000
    O491    O    0.06636   0.96752   0.15713   1.000
    O492    O    0.51956   0.98493   0.14945   1.000
    O493    O    0.56638   0.96749   0.15723   1.000
    O494    O    0.26954   0.51521   0.14970   1.000
    O495    O    0.31636   0.53259   0.15684   1.000
    O496    O    0.36086   0.56301   0.16143   1.000
    O497    O    0.86085   0.56302   0.16189   1.000
    O498    O    0.11087   0.93706   0.16192   1.000
    O499    O    0.61088   0.93701   0.16202   1.000
    O500    O    0.36288   0.48904   0.17771   1.000
    O501    O    0.11287   0.01104   0.17805   1.000
    O502    O    0.86287   0.48905   0.17817   1.000
    O503    O    0.61289   0.01099   0.17817   1.000
    O504    O    0.11339   0.07355   0.19153   1.000
    O505    O    0.14851   0.04400   0.23579   1.000
    O506    O    0.61343   0.07350   0.19165   1.000
    O507    O    0.64854   0.04393   0.23591   1.000
    O508    O    0.36341   0.42654   0.19170   1.000
    O509    O    0.39853   0.45609   0.23591   1.000
    O510    O    0.86341   0.42655   0.19170   1.000
    O511    O    0.89852   0.45609   0.23592   1.000
    O512    O    0.47980   0.51546   0.25296   1.000
    O513    O    0.22985   0.98472   0.25438   1.000
    O514    O    0.97979   0.51548   0.25446   1.000
    O515    O    0.72985   0.98458   0.25451   1.000
    O516    O    0.15855   0.67982   0.27045   1.000
    O517    O    0.18659   0.73307   0.27649   1.000
    O518    O    0.90871   0.82017   0.27047   1.000
    O519    O    0.93671   0.76684   0.27648   1.000
    O520    O    0.40870   0.82017   0.27046   1.000
    O521    O    0.43670   0.76684   0.27648   1.000
    O522    O    0.65853   0.67978   0.27047   1.000
    O523    O    0.68657   0.73304   0.27648   1.000
    O524    O    0.62833   0.62965   0.27901   1.000
    O525    O    0.12835   0.62969   0.27901   1.000
    O526    O    0.37854   0.87037   0.27904   1.000
    O527    O    0.87855   0.87039   0.27905   1.000
    O528    O    0.19432   0.01783   0.28356   1.000
    O529    O    0.15738   0.05420   0.32239   1.000
    O530    O    0.44431   0.48229   0.28366   1.000
    O531    O    0.40741   0.44588   0.32252   1.000
    O532    O    0.69434   0.01773   0.28368   1.000
    O533    O    0.65741   0.05413   0.32251   1.000
    O534    O    0.94431   0.48230   0.28366   1.000
    O535    O    0.90741   0.44587   0.32252   1.000
    O536    O    0.23745   0.98914   0.32832   1.000
    O537    O    0.48742   0.51101   0.32840   1.000
    O538    O    0.98741   0.51103   0.32840   1.000
    O539    O    0.73746   0.98901   0.32843   1.000
    O540    O    0.96083   0.71222   0.29886   1.000
    O541    O    0.46083   0.71222   0.29886   1.000
    O542    O    0.21077   0.78762   0.29888   1.000
    O543    O    0.71074   0.78758   0.29889   1.000
    O544    O    0.13625   0.67053   0.33611   1.000
    O545    O    0.63622   0.67048   0.33612   1.000
    O546    O    0.38640   0.82947   0.33611   1.000
    O547    O    0.88641   0.82949   0.33612   1.000
    O548    O    0.68237   0.75774   0.34541   1.000
    O549    O    0.93248   0.74209   0.34539   1.000
    O550    O    0.43247   0.74209   0.34539   1.000
    O551    O    0.18240   0.75778   0.34537   1.000
    O552    O    0.07906   0.85950   0.36839   1.000
    O553    O    0.57903   0.85945   0.36842   1.000
    O554    O    0.32904   0.64055   0.36841   1.000
    O555    O    0.82901   0.64064   0.36846   1.000
    O556    O    0.01507   0.93442   0.38136   1.000
    O557    O    0.51506   0.93440   0.38137   1.000
    O558    O    0.26504   0.56570   0.38137   1.000
    O559    O    0.76501   0.56579   0.38143   1.000
    O560    O    0.12661   0.08620   0.36268   1.000
    O561    O    0.62666   0.08617   0.36279   1.000
    O562    O    0.37668   0.41384   0.36282   1.000
    O563    O    0.87669   0.41382   0.36282   1.000
    O564    O    0.43448   0.03436   0.39619   1.000
    O565    O    0.93447   0.03434   0.39621   1.000
    O566    O    0.68445   0.46583   0.39625   1.000
    O567    O    0.18436   0.46594   0.39628   1.000
    O568    O    0.16376   0.06226   0.40598   1.000
    O569    O    0.66380   0.06220   0.40609   1.000
    O570    O    0.91382   0.43778   0.40610   1.000
    O571    O    0.41382   0.43780   0.40610   1.000
    O572    O    0.27422   0.96464   0.37114   1.000
    O573    O    0.24337   0.99564   0.41270   1.000
    O574    O    0.52417   0.53554   0.37120   1.000
    O575    O    0.49336   0.50448   0.41277   1.000
    O576    O    0.02416   0.53556   0.37119   1.000
    O577    O    0.99336   0.50449   0.41277   1.000
    O578    O    0.77421   0.96448   0.37125   1.000
    O579    O    0.74338   0.99552   0.41280   1.000
    O580    O    0.40124   0.78150   0.38150   1.000
    O581    O    0.15114   0.71842   0.38147   1.000
    O582    O    0.90125   0.78151   0.38150   1.000
    O583    O    0.65111   0.71837   0.38154   1.000
    O584    O    0.37088   0.10963   0.40942   1.000
    O585    O    0.87085   0.10959   0.40944   1.000
    O586    O    0.62082   0.39067   0.40948   1.000
    O587    O    0.12074   0.39076   0.40952   1.000
    O588    O    0.17126   0.77780   0.42621   1.000
    O589    O    0.92132   0.72207   0.42623   1.000
    O590    O    0.42131   0.72206   0.42623   1.000
    O591    O    0.67122   0.77773   0.42630   1.000
    O592    O    0.05417   0.90172   0.40653   1.000
    O593    O    0.09854   0.86605   0.43885   1.000
    O594    O    0.30415   0.59833   0.40654   1.000
    O595    O    0.34854   0.63392   0.43885   1.000
    O596    O    0.55415   0.90168   0.40655   1.000
    O597    O    0.59851   0.86600   0.43888   1.000
    O598    O    0.80414   0.59839   0.40658   1.000
    O599    O    0.84854   0.63395   0.43887   1.000
    O600    O    0.02769   0.94960   0.45334   1.000
    O601    O    0.52768   0.94958   0.45335   1.000
    O602    O    0.27767   0.55045   0.45334   1.000
    O603    O    0.77768   0.55047   0.45337   1.000
    O604    O    0.41006   0.07617   0.43452   1.000
    O605    O    0.45437   0.03931   0.46723   1.000
    O606    O    0.91004   0.07614   0.43453   1.000
    O607    O    0.95436   0.03930   0.46724   1.000
    O608    O    0.66003   0.42404   0.43458   1.000
    O609    O    0.70436   0.46080   0.46727   1.000
    O610    O    0.15996   0.42411   0.43460   1.000
    O611    O    0.20431   0.46085   0.46727   1.000
    O612    O    0.88360   0.12294   0.48156   1.000
    O613    O    0.38363   0.12299   0.48154   1.000
    O614    O    0.63359   0.37724   0.48161   1.000
    O615    O    0.13355   0.37727   0.48161   1.000
    O616    O    0.20662   0.03238   0.45152   1.000
    O617    O    0.17118   0.06785   0.47912   1.000
    O618    O    0.70665   0.03230   0.45163   1.000
    O619    O    0.67122   0.06780   0.47928   1.000
    O620    O    0.95666   0.46768   0.45161   1.000
    O621    O    0.92126   0.43217   0.47928   1.000
    O622    O    0.45665   0.46769   0.45161   1.000
    O623    O    0.42125   0.43219   0.47928   1.000
    O624    O    0.24998   0.00007   0.49990   1.000
    O625    O    0.99999   0.50002   0.49997   1.000
    O626    O    0.49999   0.50002   0.49997   1.000
    O627    O    0.75000   0.99996   0.50002   1.000
    O628    O    0.44354   0.67794   0.46700   1.000
    O629    O    0.19352   0.82187   0.46701   1.000
    O630    O    0.94356   0.67795   0.46701   1.000
    O631    O    0.69348   0.82179   0.46708   1.000
    O632    O    0.89649   0.66942   0.47185   1.000
    O633    O    0.92675   0.71737   0.49760   1.000
    O634    O    0.39647   0.66941   0.47185   1.000
    O635    O    0.42674   0.71735   0.49735   1.000
    O636    O    0.14645   0.83047   0.47186   1.000
    O637    O    0.17671   0.78248   0.49762   1.000
    O638    O    0.64642   0.83041   0.47191   1.000
    O639    O    0.67665   0.78240   0.49767   1.000
    O640    O    0.32333   0.21763   0.50226   1.000
    O641    O    0.82327   0.21755   0.50230   1.000
    O642    O    0.07323   0.28268   0.50233   1.000
    O643    O    0.57324   0.28269   0.50234   1.000
    O644    O    0.36639   0.62280   0.51829   1.000
    O645    O    0.86644   0.62277   0.51833   1.000
    O646    O    0.11638   0.87709   0.51835   1.000
    O647    O    0.61634   0.87704   0.51838   1.000
    O648    O    0.32875   0.93223   0.52064   1.000
    O649    O    0.57873   0.56784   0.52065   1.000
    O650    O    0.07872   0.56786   0.52066   1.000
    O651    O    0.82879   0.93219   0.52073   1.000
    O652    O    0.24998   0.50002   0.49996   1.000
    O653    O    0.29562   0.53923   0.53267   1.000
    O654    O    0.99999   0.00001   0.49996   1.000
    O655    O    0.04562   0.96073   0.53268   1.000
    O656    O    0.75001   0.50002   0.49998   1.000
    O657    O    0.79567   0.53919   0.53267   1.000
    O658    O    0.49999   0.00001   0.49996   1.000
    O659    O    0.54560   0.96072   0.53266   1.000
    O660    O    0.47230   0.05045   0.54658   1.000
    O661    O    0.97229   0.05043   0.54659   1.000
    O662    O    0.22230   0.44957   0.54657   1.000
    O663    O    0.72231   0.44959   0.54657   1.000
    O664    O    0.35356   0.16962   0.52802   1.000
    O665    O    0.40147   0.13402   0.56104   1.000
    O666    O    0.85352   0.16956   0.52806   1.000
    O667    O    0.90144   0.13397   0.56107   1.000
    O668    O    0.10349   0.33062   0.52808   1.000
    O669    O    0.15144   0.36609   0.56097   1.000
    O670    O    0.60351   0.33063   0.52809   1.000
    O671    O    0.65144   0.36612   0.56107   1.000
    O672    O    0.30649   0.17824   0.53284   1.000
    O673    O    0.32875   0.22229   0.57363   1.000
    O674    O    0.80645   0.17815   0.53291   1.000
    O675    O    0.82872   0.22223   0.57365   1.000
    O676    O    0.05642   0.32209   0.53293   1.000
    O677    O    0.07866   0.27797   0.57370   1.000
    O678    O    0.55644   0.32211   0.53294   1.000
    O679    O    0.57867   0.27798   0.57367   1.000
    O680    O    0.29332   0.96773   0.54828   1.000
    O681    O    0.25659   0.00452   0.58710   1.000
    O682    O    0.54332   0.53235   0.54832   1.000
    O683    O    0.50662   0.49556   0.58717   1.000
    O684    O    0.04332   0.53236   0.54833   1.000
    O685    O    0.00662   0.49555   0.58717   1.000
    O686    O    0.79335   0.96765   0.54840   1.000
    O687    O    0.75660   0.00439   0.58722   1.000
    O688    O    0.33617   0.93783   0.59382   1.000
    O689    O    0.58616   0.56224   0.59384   1.000
    O690    O    0.08616   0.56225   0.59384   1.000
    O691    O    0.83621   0.93777   0.59394   1.000
    O692    O    0.33995   0.57600   0.56532   1.000
    O693    O    0.37916   0.60937   0.59040   1.000
    O694    O    0.84002   0.57593   0.56534   1.000
    O695    O    0.87924   0.60928   0.59041   1.000
    O696    O    0.08994   0.92389   0.56538   1.000
    O697    O    0.12914   0.89045   0.59047   1.000
    O698    O    0.58991   0.92386   0.56536   1.000
    O699    O    0.62910   0.89040   0.59050   1.000
    O700    O    0.56550   0.96567   0.60365   1.000
    O701    O    0.81562   0.53410   0.60367   1.000
    O702    O    0.31553   0.53420   0.60369   1.000
    O703    O    0.06552   0.96569   0.60372   1.000
    O704    O    0.69582   0.40171   0.59335   1.000
    O705    O    0.73494   0.43434   0.61854   1.000
    O706    O    0.19584   0.40165   0.59326   1.000
    O707    O    0.23497   0.43425   0.61851   1.000
    O708    O    0.44582   0.09834   0.59337   1.000
    O709    O    0.48492   0.06563   0.61856   1.000
    O710    O    0.94580   0.09830   0.59339   1.000
    O711    O    0.98454   0.06560   0.61857   1.000
    O712    O    0.17097   0.35940   0.63139   1.000
    O713    O    0.42094   0.14058   0.63151   1.000
    O714    O    0.67094   0.35949   0.63152   1.000
    O715    O    0.92091   0.14052   0.63154   1.000
    O716    O    0.59874   0.21853   0.61840   1.000
    O717    O    0.56751   0.25794   0.65451   1.000
    O718    O    0.84883   0.28160   0.61840   1.000
    O719    O    0.81758   0.24224   0.65449   1.000
    O720    O    0.34887   0.28166   0.61840   1.000
    O721    O    0.31760   0.24229   0.65445   1.000
    O722    O    0.09872   0.21852   0.61843   1.000
    O723    O    0.06750   0.25794   0.65455   1.000
    O724    O    0.36375   0.32955   0.66382   1.000
    O725    O    0.11356   0.17055   0.66380   1.000
    O726    O    0.61358   0.17056   0.66381   1.000
    O727    O    0.86373   0.32949   0.66382   1.000
    O728    O    0.22576   0.03555   0.62865   1.000
    O729    O    0.47581   0.46451   0.62873   1.000
    O730    O    0.72575   0.03539   0.62875   1.000
    O731    O    0.97581   0.46449   0.62874   1.000
    O732    O    0.26251   0.00918   0.67147   1.000
    O733    O    0.01256   0.48902   0.67154   1.000
    O734    O    0.51255   0.48904   0.67154   1.000
    O735    O    0.76252   0.00911   0.67159   1.000
    O736    O    0.37331   0.91386   0.63712   1.000
    O737    O    0.34256   0.94590   0.67740   1.000
    O738    O    0.62330   0.58619   0.63712   1.000
    O739    O    0.59257   0.55415   0.67742   1.000
    O740    O    0.12329   0.58621   0.63710   1.000
    O741    O    0.09257   0.55416   0.67742   1.000
    O742    O    0.87336   0.91383   0.63724   1.000
    O743    O    0.84259   0.94583   0.67752   1.000
    O744    O    0.28923   0.21244   0.70097   1.000
    O745    O    0.31340   0.26698   0.72335   1.000
    O746    O    0.78921   0.21240   0.70104   1.000
    O747    O    0.81338   0.26695   0.72344   1.000
    O748    O    0.53915   0.28781   0.70108   1.000
    O749    O    0.56328   0.23319   0.72345   1.000
    O750    O    0.03915   0.28781   0.70108   1.000
    O751    O    0.06327   0.23319   0.72345   1.000
    O752    O    0.12142   0.12964   0.72087   1.000
    O753    O    0.09126   0.17985   0.72946   1.000
    O754    O    0.62143   0.12965   0.72087   1.000
    O755    O    0.59127   0.17986   0.72946   1.000
    O756    O    0.87163   0.37033   0.72092   1.000
    O757    O    0.84142   0.32020   0.72947   1.000
    O758    O    0.37164   0.37038   0.72092   1.000
    O759    O    0.34144   0.32024   0.72943   1.000
    O760    O    0.30563   0.98047   0.71624   1.000
    O761    O    0.27012   0.01362   0.74541   1.000
    O762    O    0.55566   0.51775   0.71628   1.000
    O763    O    0.52018   0.48459   0.74548   1.000
    O764    O    0.05567   0.51774   0.71628   1.000
    O765    O    0.01429   0.48457   0.74548   1.000
    O766    O    0.80565   0.98042   0.71636   1.000
    O767    O    0.77012   0.01354   0.74553   1.000
    O768    O    0.35143   0.95610   0.76401   1.000
    O769    O    0.60145   0.54395   0.76403   1.000
    O770    O    0.10146   0.54394   0.76403   1.000
    O771    O    0.85146   0.95603   0.76413   1.000
    O772    O    0.31112   0.30660   0.81960   1.000
    O773    O    0.56100   0.19347   0.81968   1.000
    O774    O    0.81111   0.30658   0.81965   1.000
    O775    O    0.06100   0.19347   0.81968   1.000
    O776    O    0.13658   0.57348   0.80824   1.000
    O777    O    0.63657   0.57349   0.80824   1.000
    O778    O    0.38654   0.92653   0.80827   1.000
    O779    O    0.88658   0.92648   0.80838   1.000
    O780    O    0.63710   0.51099   0.82178   1.000
    O781    O    0.60645   0.55537   0.83806   1.000
    O782    O    0.13711   0.51098   0.82177   1.000
    O783    O    0.10646   0.55537   0.83806   1.000
    O784    O    0.38707   0.97563   0.82175   1.000
    O785    O    0.35641   0.94469   0.83805   1.000
    O786    O    0.88710   0.97560   0.82185   1.000
    O787    O    0.85645   0.94463   0.83817   1.000
    O788    O    0.38909   0.04961   0.83790   1.000
    O789    O    0.43359   0.01913   0.84270   1.000
    O790    O    0.13912   0.43701   0.83805   1.000
    O791    O    0.18363   0.46743   0.84264   1.000
    O792    O    0.63912   0.43702   0.83805   1.000
    O793    O    0.68362   0.46744   0.84265   1.000
    O794    O    0.88910   0.04958   0.83798   1.000
    O795    O    0.93361   0.01912   0.84277   1.000
    O796    O    0.23781   0.16731   0.87724   1.000
    O797    O    0.73780   0.16737   0.87734   1.000
    O798    O    0.48786   0.33244   0.87780   1.000
    O799    O    0.98688   0.33241   0.87783   1.000
    O800    O    0.39574   0.12586   0.85318   1.000
    O801    O    0.89574   0.12582   0.85325   1.000
    O802    O    0.64577   0.37417   0.85341   1.000
    O803    O    0.14578   0.37416   0.85341   1.000
    O804    O    0.23045   0.48481   0.85022   1.000
    O805    O    0.73044   0.48481   0.85023   1.000
    O806    O    0.48041   0.01509   0.85047   1.000
    O807    O    0.98043   0.01508   0.85053   1.000
    O808    O    0.21810   0.42189   0.86109   1.000
    O809    O    0.71809   0.42190   0.86111   1.000
    O810    O    0.46806   0.07804   0.86120   1.000
    O811    O    0.96807   0.07802   0.86125   1.000
    O812    O    0.12157   0.03191   0.88526   1.000
    O813    O    0.87160   0.45611   0.88533   1.000
    O814    O    0.62158   0.03191   0.88531   1.000
    O815    O    0.37160   0.45611   0.88533   1.000
    O816    O    0.44514   0.13517   0.86778   1.000
    O817    O    0.41376   0.18494   0.87021   1.000
    O818    O    0.94514   0.13515   0.86783   1.000
    O819    O    0.91375   0.18490   0.87026   1.000
    O820    O    0.19519   0.36480   0.86785   1.000
    O821    O    0.16381   0.31508   0.87046   1.000
    O822    O    0.69518   0.36481   0.86786   1.000
    O823    O    0.66380   0.31508   0.87048   1.000
    O824    O    0.26145   0.34914   0.87862   1.000
    O825    O    0.76144   0.34914   0.87864   1.000
    O826    O    0.51138   0.15084   0.87868   1.000
    O827    O    0.01139   0.15084   0.87870   1.000
    O828    O    0.33513   0.34213   0.91951   1.000
    O829    O    0.29352   0.26610   0.92212   1.000
    O830    O    0.83512   0.34213   0.91952   1.000
    O831    O    0.79352   0.26611   0.92217   1.000
    O832    O    0.58508   0.15788   0.91952   1.000
    O833    O    0.54352   0.23383   0.92246   1.000
    O834    O    0.08509   0.15788   0.91950   1.000
    O835    O    0.04353   0.23383   0.92248   1.000
    O836    O    0.12862   0.09785   0.93412   1.000
    O837    O    0.16674   0.04784   0.93530   1.000
    O838    O    0.62861   0.09786   0.93417   1.000
    O839    O    0.66673   0.04786   0.93556   1.000
    O840    O    0.37863   0.40213   0.93422   1.000
    O841    O    0.41675   0.45212   0.93560   1.000
    O842    O    0.87862   0.40213   0.93422   1.000
    O843    O    0.91675   0.45212   0.93560   1.000
    O844    O    0.26953   0.18910   0.93701   1.000
    O845    O    0.25022   0.12143   0.94016   1.000
    O846    O    0.76954   0.18913   0.93710   1.000
    O847    O    0.75021   0.12146   0.94009   1.000
    O848    O    0.51959   0.31072   0.93759   1.000
    O849    O    0.50024   0.37843   0.94059   1.000
    O850    O    0.01862   0.31071   0.93763   1.000
    O851    O    0.99926   0.37842   0.94061   1.000
    O852    O    0.22257   0.05628   0.95961   1.000
    O853    O    0.19794   0.99181   0.97242   1.000
    O854    O    0.72256   0.05631   0.95972   1.000
    O855    O    0.69793   0.99183   0.97268   1.000
    O856    O    0.97257   0.44365   0.96002   1.000
    O857    O    0.94793   0.50819   0.97254   1.000
    O858    O    0.47257   0.44365   0.96001   1.000
    O859    O    0.44793   0.50819   0.97259   1.000
    O860    O    0.92933   0.56730   0.98610   1.000
    O861    O    0.42933   0.56730   0.98617   1.000
    O862    O    0.17934   0.93276   0.98640   1.000
    O863    O    0.67934   0.93278   0.98647   1.000
loop_
    _geom_bond_atom_site_label_1
    _geom_bond_atom_site_label_2
    _geom_bond_distance
    _geom_bond_site_symmetry_2
    _ccdc_geom_bond_type
    C278   O408      0.54390      .   S
    C108   O408      0.54390      .   S
    C278   O409      0.69916      .   S
    C184   O409      0.69916  1_565   S
    C278   O410      0.70018  1_554   S
    C274   O410      0.70018      .   S
    C279   O411      0.54390      .   S
    C109   O411      0.54390      .   S
    C279   O412      0.69913      .   S
    C185   O412      0.69913  1_565   S
    C279   O413      0.70102  1_554   S
    C275   O413      0.70102      .   S
    C233   O414      0.54391      .   S
    C75    O414      0.54391      .   S
    C233   O415      0.69924      .   S
    C323   O415      0.69924      .   S
    C233   O416      0.70020  1_554   S
    C228   O416      0.70020      .   S
    C232   O417      0.54391      .   S
    C74    O417      0.54391      .   S
    C232   O418      0.69924      .   S
    C322   O418      0.69924      .   S
    C232   O419      0.70024  1_554   S
    C229   O419      0.70024  1_655   S
    C183   O420      0.70561      .   S
    C185   O420      0.70561      .   S
    C183   O421      0.75547      .   S
    C181   O421      0.75547      .   S
    C183   O422      0.69816      .   S
    C187   O422      0.69816  1_556   S
    C320   O423      0.70558      .   S
    C322   O423      0.70558      .   S
    C320   O424      0.75316  1_455   S
    C318   O424      0.75316      .   S
    C320   O425      0.70048  1_455   S
    C325   O425      0.70048  1_556   S
    C321   O426      0.70557      .   S
    C323   O426      0.70557      .   S
    C321   O427      0.75314      .   S
    C319   O427      0.75314      .   S
    C321   O428      0.70022      .   S
    C324   O428      0.70022  1_556   S
    C182   O429      0.70552      .   S
    C184   O429      0.70552      .   S
    C182   O430      0.75311      .   S
    C180   O430      0.75311      .   S
    C182   O431      0.70016      .   S
    C186   O431      0.70016  1_556   S
    C401   O432      0.64880      .   S
    C318   O432      0.64880      .   S
    C401   O433      0.98595      .   S
    C7     O433      0.98595      .   S
    C400   O434      0.64877      .   S
    C319   O434      0.64877      .   S
    C400   O435      0.98595      .   S
    C6     O435      0.98595      .   S
    C376   O436      0.64876      .   S
    C180   O436      0.64876      .   S
    C376   O437      0.98533      .   S
    C0     O437      0.98533      .   S
    C377   O438      0.64875      .   S
    C181   O438      0.64875      .   S
    C377   O439      0.98506      .   S
    C1     O439      0.98506      .   S
    C322   O440      0.75384      .   S
    C326   O440      0.75384      .   S
    C323   O441      0.75384      .   S
    C327   O441      0.75384      .   S
    C184   O442      0.75377      .   S
    C188   O442      0.75377      .   S
    C185   O443      0.75377      .   S
    C189   O443      0.75377      .   S
    C404   O444      0.65091      .   S
    C326   O444      0.65091      .   S
    C404   O445      0.98621      .   S
    C0     O445      0.98621      .   S
    C405   O446      0.65090      .   S
    C327   O446      0.65090      .   S
    C405   O447      0.98605      .   S
    C1     O447      0.98605      .   S
    C380   O448      0.65089      .   S
    C188   O448      0.65089      .   S
    C380   O449      0.98614      .   S
    C6     O449      0.98614      .   S
    C381   O450      0.65089      .   S
    C189   O450      0.65089      .   S
    C381   O451      0.98619      .   S
    C7     O451      0.98619      .   S
    C318   O452      0.62698  1_655   S
    C402   O452      0.62698      .   S
    C319   O453      0.62695      .   S
    C403   O453      0.62695      .   S
    C180   O454      0.62693      .   S
    C378   O454      0.62693      .   S
    C181   O455      0.62688      .   S
    C379   O455      0.62688      .   S
    C327   O456      0.62540      .   S
    C407   O456      0.62540      .   S
    C326   O457      0.62541      .   S
    C406   O457      0.62541      .   S
    C188   O458      0.62540      .   S
    C382   O458      0.62540      .   S
    C189   O459      0.62537      .   S
    C383   O459      0.62537      .   S
    C7     O460      1.01692      .   S
    C370   O460      1.01692  1_455   S
    C7     O461      1.03379      .   S
    C365   O461      1.03379      .   S
    C6     O462      1.01691      .   S
    C371   O462      1.01691      .   S
    C6     O463      1.03375      .   S
    C364   O463      1.03375      .   S
    C1     O464      1.01645      .   S
    C335   O464      1.01645      .   S
    C1     O465      1.03403      .   S
    C329   O465      1.03403      .   S
    C0     O466      1.01647      .   S
    C334   O466      1.01647      .   S
    C0     O467      1.03362      .   S
    C328   O467      1.03362      .   S
    C38    O468      0.54207      .   S
    C178   O468      0.54207      .   S
    C39    O469      0.54199      .   S
    C179   O469      0.54199      .   S
    C140   O470      0.54206      .   S
    C316   O470      0.54206      .   S
    C141   O471      0.54199      .   S
    C317   O471      0.54199      .   S
    C370   O472      0.68509      .   S
    C316   O472      0.68509      .   S
    C370   O473      0.67135      .   S
    C314   O473      0.67135      .   S
    C371   O474      0.68510      .   S
    C317   O474      0.68510      .   S
    C371   O475      0.67123      .   S
    C315   O475      0.67123      .   S
    C334   O476      0.68508      .   S
    C178   O476      0.68508      .   S
    C334   O477      0.67120      .   S
    C176   O477      0.67120      .   S
    C335   O478      0.68508      .   S
    C179   O478      0.68508      .   S
    C335   O479      0.67022      .   S
    C177   O479      0.67022      .   S
    C134   O480      0.54930      .   S
    C312   O480      0.54930      .   S
    C32    O481      0.54946      .   S
    C174   O481      0.54946      .   S
    C33    O482      0.54951      .   S
    C175   O482      0.54951      .   S
    C135   O483      0.54929      .   S
    C313   O483      0.54929      .   S
    C179   O484      0.66194      .   S
    C337   O484      0.66194      .   S
    C178   O485      0.66185      .   S
    C336   O485      0.66185      .   S
    C317   O486      0.66189      .   S
    C373   O486      0.66189      .   S
    C316   O487      0.66182      .   S
    C372   O487      0.66182      .   S
    C177   O488      0.54327      .   S
    C37    O488      0.54327      .   S
    C177   O489      0.67344      .   S
    C339   O489      0.67344      .   S
    C314   O490      0.54272      .   S
    C138   O490      0.54272  1_545   S
    C314   O491      0.67299      .   S
    C374   O491      0.67299      .   S
    C315   O492      0.54273      .   S
    C139   O492      0.54273  1_545   S
    C315   O493      0.67302      .   S
    C375   O493      0.67302      .   S
    C176   O494      0.54279      .   S
    C36    O494      0.54279      .   S
    C176   O495      0.67236      .   S
    C338   O495      0.67236      .   S
    C336   O496      0.68350      .   S
    C338   O496      0.68350      .   S
    C337   O497      0.68431      .   S
    C339   O497      0.68431      .   S
    C372   O498      0.68421      .   S
    C374   O498      0.68421      .   S
    C373   O499      0.68424      .   S
    C375   O499      0.68424      .   S
    C338   O500      0.73923      .   S
    C174   O500      0.73923      .   S
    C374   O501      0.73804  1_565   S
    C312   O501      0.73804      .   S
    C339   O502      0.73796      .   S
    C175   O502      0.73796      .   S
    C375   O503      0.73799  1_565   S
    C313   O503      0.73799      .   S
    C312   O504      0.54844      .   S
    C136   O504      0.54844      .   S
    C312   O505      0.75419      .   S
    C306   O505      0.75419      .   S
    C313   O506      0.54844      .   S
    C137   O506      0.54844      .   S
    C313   O507      0.75418      .   S
    C307   O507      0.75418      .   S
    C174   O508      0.54845      .   S
    C34    O508      0.54845      .   S
    C174   O509      0.75420      .   S
    C168   O509      0.75420      .   S
    C175   O510      0.54843      .   S
    C35    O510      0.54843      .   S
    C175   O511      0.75415      .   S
    C169   O511      0.75415      .   S
    C29    O512      0.56384      .   S
    C170   O512      0.56384      .   S
    C130   O513      0.54484      .   S
    C308   O513      0.54484      .   S
    C28    O514      0.54490      .   S
    C171   O514      0.54490      .   S
    C131   O515      0.54481      .   S
    C309   O515      0.54481      .   S
    C328   O516      0.68625      .   S
    C144   O516      0.68625      .   S
    C328   O517      0.67036      .   S
    C146   O517      0.67036      .   S
    C365   O518      0.68631      .   S
    C283   O518      0.68631      .   S
    C365   O519      0.67038      .   S
    C285   O519      0.67038      .   S
    C364   O520      0.68629      .   S
    C282   O520      0.68629      .   S
    C364   O521      0.67037      .   S
    C284   O521      0.67037      .   S
    C329   O522      0.68626      .   S
    C145   O522      0.68626      .   S
    C329   O523      0.66997      .   S
    C147   O523      0.66997      .   S
    C9     O524      0.54143      .   S
    C145   O524      0.54143      .   S
    C8     O525      0.54141      .   S
    C144   O525      0.54141      .   S
    C110   O526      0.54143      .   S
    C282   O526      0.54143      .   S
    C111   O527      0.54144      .   S
    C283   O527      0.54144      .   S
    C306   O528      0.70086      .   S
    C308   O528      0.70086  1_565   S
    C306   O529      0.69930      .   S
    C304   O529      0.69930      .   S
    C168   O530      0.70086      .   S
    C170   O530      0.70086      .   S
    C168   O531      0.69928      .   S
    C166   O531      0.69928      .   S
    C307   O532      0.70087      .   S
    C309   O532      0.70087  1_565   S
    C307   O533      0.69932      .   S
    C305   O533      0.69932      .   S
    C169   O534      0.70087      .   S
    C171   O534      0.70087      .   S
    C169   O535      0.69929      .   S
    C167   O535      0.69929      .   S
    C308   O536      0.69583      .   S
    C310   O536      0.69583      .   S
    C170   O537      0.69587      .   S
    C173   O537      0.69587      .   S
    C171   O538      0.69583      .   S
    C172   O538      0.69583  1_455   S
    C309   O539      0.69564      .   S
    C311   O539      0.69564      .   S
    C113   O540      0.54240      .   S
    C285   O540      0.54240      .   S
    C112   O541      0.54239      .   S
    C284   O541      0.54239      .   S
    C10    O542      0.54243      .   S
    C146   O542      0.54243      .   S
    C11    O543      0.54229      .   S
    C147   O543      0.54229      .   S
    C144   O544      0.66224      .   S
    C330   O544      0.66224      .   S
    C145   O545      0.66223      .   S
    C331   O545      0.66223      .   S
    C282   O546      0.66219      .   S
    C366   O546      0.66219      .   S
    C283   O547      0.66216      .   S
    C367   O547      0.66216      .   S
    C147   O548      0.67323      .   S
    C333   O548      0.67323      .   S
    C285   O549      0.67266      .   S
    C369   O549      0.67266      .   S
    C284   O550      0.67271      .   S
    C368   O550      0.67271      .   S
    C146   O551      0.67213      .   S
    C332   O551      0.67213      .   S
    C16    O552      0.54468      .   S
    C152   O552      0.54468      .   S
    C17    O553      0.54471      .   S
    C153   O553      0.54471      .   S
    C118   O554      0.54465      .   S
    C290   O554      0.54465      .   S
    C119   O555      0.54466      .   S
    C291   O555      0.54466      .   S
    C18    O556      0.54412  1_655   S
    C154   O556      0.54412      .   S
    C19    O557      0.54410      .   S
    C155   O557      0.54410      .   S
    C120   O558      0.54410      .   S
    C292   O558      0.54410      .   S
    C121   O559      0.54410      .   S
    C293   O559      0.54410      .   S
    C128   O560      0.54589      .   S
    C304   O560      0.54589      .   S
    C129   O561      0.54588      .   S
    C305   O561      0.54588      .   S
    C26    O562      0.54589      .   S
    C166   O562      0.54589      .   S
    C27    O563      0.54589      .   S
    C167   O563      0.54589      .   S
    C88    O564      0.54434      .   S
    C250   O564      0.54434      .   S
    C89    O565      0.54437      .   S
    C251   O565      0.54437      .   S
    C55    O566      0.54432      .   S
    C205   O566      0.54432      .   S
    C54    O567      0.54436      .   S
    C204   O567      0.54436      .   S
    C304   O568      0.69654      .   S
    C302   O568      0.69654      .   S
    C305   O569      0.69648      .   S
    C303   O569      0.69648      .   S
    C167   O570      0.69650      .   S
    C165   O570      0.69650      .   S
    C166   O571      0.69650      .   S
    C164   O571      0.69650      .   S
    C310   O572      0.54410      .   S
    C132   O572      0.54410      .   S
    C310   O573      0.70523      .   S
    C300   O573      0.70523  1_545   S
    C173   O574      0.54411      .   S
    C31    O574      0.54411      .   S
    C173   O575      0.70525      .   S
    C162   O575      0.70525      .   S
    C172   O576      0.54413      .   S
    C30    O576      0.54413      .   S
    C172   O577      0.70528  1_455   S
    C163   O577      0.70528      .   S
    C311   O578      0.54410      .   S
    C133   O578      0.54410      .   S
    C311   O579      0.70544      .   S
    C301   O579      0.70544  1_545   S
    C366   O580      0.68759      .   S
    C368   O580      0.68759      .   S
    C330   O581      0.68756      .   S
    C332   O581      0.68756      .   S
    C367   O582      0.68758      .   S
    C369   O582      0.68758      .   S
    C331   O583      0.68756      .   S
    C333   O583      0.68756      .   S
    C90    O584      0.54579      .   S
    C252   O584      0.54579      .   S
    C91    O585      0.54565      .   S
    C253   O585      0.54565      .   S
    C57    O586      0.54596      .   S
    C207   O586      0.54596      .   S
    C56    O587      0.54576      .   S
    C206   O587      0.54576      .   S
    C332   O588      0.72887      .   S
    C148   O588      0.72887      .   S
    C369   O589      0.72832      .   S
    C287   O589      0.72832      .   S
    C368   O590      0.72840      .   S
    C286   O590      0.72840      .   S
    C333   O591      0.72837      .   S
    C149   O591      0.72837      .   S
    C152   O592      0.69692      .   S
    C154   O592      0.69692      .   S
    C152   O593      0.69853      .   S
    C150   O593      0.69853      .   S
    C290   O594      0.69694      .   S
    C292   O594      0.69694      .   S
    C290   O595      0.69854      .   S
    C288   O595      0.69854      .   S
    C153   O596      0.69691      .   S
    C155   O596      0.69691      .   S
    C153   O597      0.69855      .   S
    C151   O597      0.69855      .   S
    C291   O598      0.69693      .   S
    C293   O598      0.69693      .   S
    C291   O599      0.69854      .   S
    C289   O599      0.69854      .   S
    C154   O600      0.70417      .   S
    C156   O600      0.70417      .   S
    C155   O601      0.70421      .   S
    C157   O601      0.70421      .   S
    C292   O602      0.70418      .   S
    C294   O602      0.70418      .   S
    C293   O603      0.70424      .   S
    C295   O603      0.70424      .   S
    C250   O604      0.69597      .   S
    C252   O604      0.69597      .   S
    C250   O605      0.70510      .   S
    C248   O605      0.70510      .   S
    C251   O606      0.69594      .   S
    C253   O606      0.69594      .   S
    C251   O607      0.70508      .   S
    C249   O607      0.70508      .   S
    C205   O608      0.69600      .   S
    C207   O608      0.69600      .   S
    C205   O609      0.70513      .   S
    C203   O609      0.70513      .   S
    C204   O610      0.69598      .   S
    C206   O610      0.69598      .   S
    C204   O611      0.70507      .   S
    C202   O611      0.70507      .   S
    C253   O612      0.70047      .   S
    C243   O612      0.70047      .   S
    C252   O613      0.70031      .   S
    C242   O613      0.70031      .   S
    C207   O614      0.70033      .   S
    C197   O614      0.70033      .   S
    C206   O615      0.70036      .   S
    C196   O615      0.70036      .   S
    C302   O616      0.70475      .   S
    C300   O616      0.70475      .   S
    C302   O617      0.54339      .   S
    C126   O617      0.54339      .   S
    C303   O618      0.70474      .   S
    C301   O618      0.70474      .   S
    C303   O619      0.54398      .   S
    C127   O619      0.54398      .   S
    C165   O620      0.70472      .   S
    C163   O620      0.70472      .   S
    C165   O621      0.54394      .   S
    C25    O621      0.54394      .   S
    C164   O622      0.70472      .   S
    C162   O622      0.70472      .   S
    C164   O623      0.54393      .   S
    C24    O623      0.54393      .   S
    C300   O624      0.74331      .   S
    C208   O624      0.74331  1_565   S
    C163   O625      0.74331      .   S
    C254   O625      0.74331  1_455   S
    C162   O626      0.74329      .   S
    C255   O626      0.74329      .   S
    C301   O627      0.74331  1_545   S
    C209   O627      0.74331      .   S
    C114   O628      0.54968      .   S
    C286   O628      0.54968      .   S
    C12    O629      0.54968      .   S
    C148   O629      0.54968      .   S
    C115   O630      0.54966      .   S
    C287   O630      0.54966      .   S
    C13    O631      0.54968      .   S
    C149   O631      0.54968      .   S
    C287   O632      0.75713      .   S
    C289   O632      0.75713      .   S
    C287   O633      0.54945      .   S
    C117   O633      0.54945      .   S
    C286   O634      0.75711      .   S
    C288   O634      0.75711      .   S
    C286   O635      0.54656      .   S
    C116   O635      0.54656      .   S
    C148   O636      0.75707      .   S
    C150   O636      0.75707      .   S
    C148   O637      0.54935      .   S
    C14    O637      0.54935      .   S
    C149   O638      0.75708      .   S
    C151   O638      0.75708      .   S
    C149   O639      0.54935      .   S
    C15    O639      0.54935      .   S
    C82    O640      0.54936      .   S
    C240   O640      0.54936      .   S
    C83    O641      0.54936      .   S
    C241   O641      0.54936      .   S
    C48    O642      0.54938      .   S
    C194   O642      0.54938      .   S
    C49    O643      0.54936      .   S
    C195   O643      0.54936      .   S
    C288   O644      0.69988      .   S
    C298   O644      0.69988      .   S
    C289   O645      0.70036      .   S
    C299   O645      0.70036      .   S
    C150   O646      0.70035      .   S
    C160   O646      0.70035      .   S
    C151   O647      0.70032      .   S
    C161   O647      0.70032      .   S
    C58    O648      0.54397      .   S
    C210   O648      0.54397      .   S
    C93    O649      0.54392      .   S
    C257   O649      0.54392      .   S
    C92    O650      0.54394      .   S
    C256   O650      0.54394      .   S
    C59    O651      0.54413      .   S
    C211   O651      0.54413      .   S
    C294   O652      0.74404      .   S
    C202   O652      0.74404      .   S
    C294   O653      0.70513      .   S
    C296   O653      0.70513      .   S
    C156   O654      0.74396  1_465   S
    C249   O654      0.74396      .   S
    C156   O655      0.70510      .   S
    C158   O655      0.70510      .   S
    C295   O656      0.74404      .   S
    C203   O656      0.74404      .   S
    C295   O657      0.70513      .   S
    C297   O657      0.70513      .   S
    C157   O658      0.74390  1_565   S
    C248   O658      0.74390      .   S
    C157   O659      0.70469      .   S
    C159   O659      0.70469      .   S
    C248   O660      0.70420      .   S
    C246   O660      0.70420      .   S
    C249   O661      0.70416      .   S
    C247   O661      0.70416      .   S
    C202   O662      0.70423      .   S
    C200   O662      0.70423      .   S
    C203   O663      0.70380      .   S
    C201   O663      0.70380      .   S
    C242   O664      0.75708      .   S
    C240   O664      0.75708      .   S
    C242   O665      0.69854      .   S
    C244   O665      0.69854      .   S
    C243   O666      0.75709      .   S
    C241   O666      0.75709      .   S
    C243   O667      0.69858      .   S
    C245   O667      0.69858      .   S
    C196   O668      0.75712      .   S
    C194   O668      0.75712      .   S
    C196   O669      0.69755      .   S
    C198   O669      0.69755      .   S
    C197   O670      0.75712      .   S
    C195   O670      0.75712      .   S
    C197   O671      0.69838      .   S
    C199   O671      0.69838      .   S
    C240   O672      0.54968      .   S
    C80    O672      0.54968      .   S
    C240   O673      0.72836      .   S
    C356   O673      0.72836      .   S
    C241   O674      0.54968      .   S
    C81    O674      0.54968      .   S
    C241   O675      0.72808      .   S
    C357   O675      0.72808      .   S
    C194   O676      0.54968      .   S
    C46    O676      0.54968      .   S
    C194   O677      0.72841      .   S
    C344   O677      0.72841      .   S
    C195   O678      0.54967      .   S
    C47    O678      0.54967      .   S
    C195   O679      0.72789      .   S
    C345   O679      0.72789      .   S
    C208   O680      0.70474      .   S
    C210   O680      0.70474      .   S
    C208   O681      0.70525  1_565   S
    C218   O681      0.70525      .   S
    C255   O682      0.70471      .   S
    C257   O682      0.70471      .   S
    C255   O683      0.70531      .   S
    C264   O683      0.70531      .   S
    C254   O684      0.70471      .   S
    C256   O684      0.70471      .   S
    C254   O685      0.70535      .   S
    C265   O685      0.70535  1_655   S
    C209   O686      0.70475      .   S
    C211   O686      0.70475      .   S
    C209   O687      0.70523  1_565   S
    C219   O687      0.70523      .   S
    C210   O688      0.69647      .   S
    C212   O688      0.69647      .   S
    C257   O689      0.69650      .   S
    C259   O689      0.69650      .   S
    C256   O690      0.69644      .   S
    C258   O690      0.69644      .   S
    C211   O691      0.69653      .   S
    C213   O691      0.69653      .   S
    C298   O692      0.69608      .   S
    C296   O692      0.69608      .   S
    C298   O693      0.54618      .   S
    C124   O693      0.54618      .   S
    C299   O694      0.69598      .   S
    C297   O694      0.69598      .   S
    C299   O695      0.54577      .   S
    C125   O695      0.54577      .   S
    C160   O696      0.69597      .   S
    C158   O696      0.69597      .   S
    C160   O697      0.54577      .   S
    C22    O697      0.54577      .   S
    C161   O698      0.69587      .   S
    C159   O698      0.69587      .   S
    C161   O699      0.54575      .   S
    C23    O699      0.54575      .   S
    C159   O700      0.54428      .   S
    C21    O700      0.54428      .   S
    C297   O701      0.54429      .   S
    C123   O701      0.54429      .   S
    C296   O702      0.54432      .   S
    C122   O702      0.54432      .   S
    C158   O703      0.54432      .   S
    C20    O703      0.54432      .   S
    C201   O704      0.69698      .   S
    C199   O704      0.69698      .   S
    C201   O705      0.54448      .   S
    C53    O705      0.54448      .   S
    C200   O706      0.69670      .   S
    C198   O706      0.69670      .   S
    C200   O707      0.54410      .   S
    C52    O707      0.54410      .   S
    C246   O708      0.69691      .   S
    C244   O708      0.69691      .   S
    C246   O709      0.54409      .   S
    C86    O709      0.54409      .   S
    C247   O710      0.69692      .   S
    C245   O710      0.69692      .   S
    C247   O711      0.53932      .   S
    C87    O711      0.53932  1_455   S
    C198   O712      0.54595      .   S
    C50    O712      0.54595      .   S
    C244   O713      0.54471      .   S
    C84    O713      0.54471      .   S
    C199   O714      0.54490      .   S
    C51    O714      0.54490      .   S
    C245   O715      0.54467      .   S
    C85    O715      0.54467      .   S
    C345   O716      0.68760      .   S
    C343   O716      0.68760      .   S
    C345   O717      0.67322      .   S
    C193   O717      0.67322      .   S
    C357   O718      0.68758      .   S
    C355   O718      0.68758      .   S
    C357   O719      0.67298      .   S
    C239   O719      0.67298      .   S
    C356   O720      0.68757      .   S
    C354   O720      0.68757      .   S
    C356   O721      0.67239      .   S
    C238   O721      0.67239      .   S
    C344   O722      0.68758      .   S
    C342   O722      0.68758      .   S
    C344   O723      0.67267      .   S
    C192   O723      0.67267      .   S
    C354   O724      0.66222      .   S
    C236   O724      0.66222      .   S
    C342   O725      0.66219      .   S
    C190   O725      0.66219      .   S
    C343   O726      0.66221      .   S
    C191   O726      0.66221      .   S
    C355   O727      0.66217      .   S
    C237   O727      0.66217      .   S
    C64    O728      0.54411      .   S
    C218   O728      0.54411      .   S
    C98    O729      0.54410      .   S
    C264   O729      0.54410      .   S
    C65    O730      0.54409      .   S
    C219   O730      0.54409      .   S
    C99    O731      0.54410      .   S
    C265   O731      0.54410      .   S
    C218   O732      0.70158      .   S
    C216   O732      0.70158      .   S
    C265   O733      0.69583  1_655   S
    C262   O733      0.69583      .   S
    C264   O734      0.69581      .   S
    C263   O734      0.69581      .   S
    C219   O735      0.70137      .   S
    C217   O735      0.70137      .   S
    C212   O736      0.54588      .   S
    C60    O736      0.54588      .   S
    C212   O737      0.69932      .   S
    C214   O737      0.69932      .   S
    C259   O738      0.54589      .   S
    C95    O738      0.54589      .   S
    C259   O739      0.69934      .   S
    C261   O739      0.69934      .   S
    C258   O740      0.54590      .   S
    C94    O740      0.54590      .   S
    C258   O741      0.69935      .   S
    C260   O741      0.69935      .   S
    C213   O742      0.54589      .   S
    C61    O742      0.54589      .   S
    C213   O743      0.69930      .   S
    C215   O743      0.69930      .   S
    C238   O744      0.54252      .   S
    C78    O744      0.54252      .   S
    C238   O745      0.67027      .   S
    C352   O745      0.67027      .   S
    C239   O746      0.54243      .   S
    C79    O746      0.54243      .   S
    C239   O747      0.67034      .   S
    C353   O747      0.67034      .   S
    C193   O748      0.54241      .   S
    C45    O748      0.54241      .   S
    C193   O749      0.67035      .   S
    C341   O749      0.67035      .   S
    C192   O750      0.54242      .   S
    C44    O750      0.54242      .   S
    C192   O751      0.67036      .   S
    C340   O751      0.67036      .   S
    C190   O752      0.54143      .   S
    C42    O752      0.54143      .   S
    C190   O753      0.68628      .   S
    C340   O753      0.68628      .   S
    C191   O754      0.54137      .   S
    C43    O754      0.54137      .   S
    C191   O755      0.68627      .   S
    C341   O755      0.68627      .   S
    C237   O756      0.54144      .   S
    C77    O756      0.54144      .   S
    C237   O757      0.68626      .   S
    C353   O757      0.68626      .   S
    C236   O758      0.54143      .   S
    C76    O758      0.54143      .   S
    C236   O759      0.68598      .   S
    C352   O759      0.68598      .   S
    C216   O760      0.68649  1_545   S
    C214   O760      0.68649      .   S
    C216   O761      0.55606      .   S
    C62    O761      0.55606      .   S
    C263   O762      0.70085      .   S
    C261   O762      0.70085      .   S
    C263   O763      0.54488      .   S
    C96    O763      0.54488      .   S
    C262   O764      0.70086      .   S
    C260   O764      0.70086      .   S
    C262   O765      0.61302      .   S
    C97    O765      0.61302      .   S
    C217   O766      0.68698  1_545   S
    C215   O766      0.68698      .   S
    C217   O767      0.55567      .   S
    C63    O767      0.55567      .   S
    C214   O768      0.75424      .   S
    C220   O768      0.75424      .   S
    C261   O769      0.75415      .   S
    C267   O769      0.75415      .   S
    C260   O770      0.75416      .   S
    C266   O770      0.75416      .   S
    C215   O771      0.75419      .   S
    C221   O771      0.75419      .   S
    C352   O772      1.03421      .   S
    C4     O772      1.03421      .   S
    C341   O773      1.03390      .   S
    C3     O773      1.03390      .   S
    C353   O774      1.03374      .   S
    C5     O774      1.03374      .   S
    C340   O775      1.03387      .   S
    C2     O775      1.03387      .   S
    C102   O776      0.54844      .   S
    C266   O776      0.54844      .   S
    C103   O777      0.54844      .   S
    C267   O777      0.54844      .   S
    C68    O778      0.54844      .   S
    C220   O778      0.54844      .   S
    C69    O779      0.54845      .   S
    C221   O779      0.54845      .   S
    C267   O780      0.73796      .   S
    C363   O780      0.73796      .   S
    C267   O781      0.54928      .   S
    C101   O781      0.54928      .   S
    C266   O782      0.73795      .   S
    C362   O782      0.73795      .   S
    C266   O783      0.54927      .   S
    C100   O783      0.54927      .   S
    C220   O784      0.56836      .   S
    C350   O784      0.56836  1_545   S
    C220   O785      0.54924      .   S
    C66    O785      0.54924      .   S
    C221   O786      0.56855      .   S
    C351   O786      0.56855  1_545   S
    C221   O787      0.54931      .   S
    C67    O787      0.54931      .   S
    C350   O788      0.87980      .   S
    C348   O788      0.87980      .   S
    C350   O789      0.73597      .   S
    C222   O789      0.73597      .   S
    C362   O790      0.68431      .   S
    C360   O790      0.68431      .   S
    C362   O791      0.67295      .   S
    C268   O791      0.67295      .   S
    C363   O792      0.68430      .   S
    C361   O792      0.68430      .   S
    C363   O793      0.67295      .   S
    C269   O793      0.67295      .   S
    C351   O794      0.87946      .   S
    C349   O794      0.87946      .   S
    C351   O795      0.73588      .   S
    C223   O795      0.73588      .   S
    C394   O796      0.62698      .   S
    C272   O796      0.62698      .   S
    C395   O797      0.62696      .   S
    C273   O797      0.62696      .   S
    C386   O798      0.62698      .   S
    C226   O798      0.62698      .   S
    C387   O799      0.61799      .   S
    C227   O799      0.61799  1_455   S
    C348   O800      0.66182      .   S
    C224   O800      0.66182      .   S
    C349   O801      0.66183      .   S
    C225   O801      0.66183      .   S
    C361   O802      0.66185      .   S
    C271   O802      0.66185      .   S
    C360   O803      0.66184      .   S
    C270   O803      0.66184      .   S
    C104   O804      0.54279      .   S
    C268   O804      0.54279      .   S
    C105   O805      0.54279      .   S
    C269   O805      0.54279      .   S
    C70    O806      0.54272  1_565   S
    C222   O806      0.54272      .   S
    C71    O807      0.54272  1_565   S
    C223   O807      0.54272      .   S
    C268   O808      0.67119      .   S
    C358   O808      0.67119      .   S
    C269   O809      0.67120      .   S
    C359   O809      0.67120      .   S
    C222   O810      0.67124      .   S
    C346   O810      0.67124      .   S
    C223   O811      0.67124      .   S
    C347   O811      0.67124      .   S
    C398   O812      0.74553      .   S
    C280   O812      0.74553      .   S
    C391   O813      0.62541      .   S
    C235   O813      0.62541      .   S
    C399   O814      0.74581      .   S
    C281   O814      0.74581      .   S
    C390   O815      0.62538      .   S
    C234   O815      0.62538      .   S
    C224   O816      0.68511      .   S
    C346   O816      0.68511      .   S
    C224   O817      0.54205      .   S
    C72    O817      0.54205      .   S
    C225   O818      0.68510      .   S
    C347   O818      0.68510      .   S
    C225   O819      0.54206      .   S
    C73    O819      0.54206      .   S
    C270   O820      0.68509      .   S
    C358   O820      0.68509      .   S
    C270   O821      0.54207      .   S
    C106   O821      0.54207      .   S
    C271   O822      0.68508      .   S
    C359   O822      0.68508      .   S
    C271   O823      0.54208      .   S
    C107   O823      0.54208      .   S
    C358   O824      1.01650      .   S
    C4     O824      1.01650      .   S
    C359   O825      1.01653      .   S
    C5     O825      1.01653      .   S
    C346   O826      1.01692      .   S
    C3     O826      1.01692      .   S
    C347   O827      1.01696  1_655   S
    C2     O827      1.01696      .   S
    C4     O828      0.98616      .   S
    C388   O828      0.98616      .   S
    C4     O829      0.98522      .   S
    C392   O829      0.98522      .   S
    C5     O830      0.98618      .   S
    C389   O830      0.98618      .   S
    C5     O831      0.98527      .   S
    C393   O831      0.98527      .   S
    C3     O832      0.98612      .   S
    C397   O832      0.98612      .   S
    C3     O833      0.98591      .   S
    C385   O833      0.98591      .   S
    C2     O834      0.98619      .   S
    C396   O834      0.98619      .   S
    C2     O835      0.98599      .   S
    C384   O835      0.98599      .   S
    C280   O836      0.65109      .   S
    C396   O836      0.65109      .   S
    C280   O837      0.75301      .   S
    C276   O837      0.75301      .   S
    C281   O838      0.65093      .   S
    C397   O838      0.65093      .   S
    C281   O839      0.75378      .   S
    C277   O839      0.75378      .   S
    C234   O840      0.65090      .   S
    C388   O840      0.65090      .   S
    C234   O841      0.75384      .   S
    C230   O841      0.75384      .   S
    C235   O842      0.65090      .   S
    C389   O842      0.65090      .   S
    C235   O843      0.75385      .   S
    C231   O843      0.75385      .   S
    C272   O844      0.64875      .   S
    C392   O844      0.64875      .   S
    C272   O845      0.75310      .   S
    C274   O845      0.75310      .   S
    C273   O846      0.64874      .   S
    C393   O846      0.64874      .   S
    C273   O847      0.75209      .   S
    C275   O847      0.75209      .   S
    C226   O848      0.64875      .   S
    C385   O848      0.64875      .   S
    C226   O849      0.75314      .   S
    C228   O849      0.75314      .   S
    C227   O850      0.66159      .   S
    C384   O850      0.66159      .   S
    C227   O851      0.75142  1_455   S
    C229   O851      0.75142      .   S
    C276   O852      0.70556      .   S
    C274   O852      0.70556      .   S
    C276   O853      0.70017  1_545   S
    C186   O853      0.70017      .   S
    C277   O854      0.70548      .   S
    C275   O854      0.70548      .   S
    C277   O855      0.69917  1_545   S
    C187   O855      0.69917      .   S
    C231   O856      0.70558      .   S
    C229   O856      0.70558      .   S
    C231   O857      0.69902      .   S
    C325   O857      0.69902      .   S
    C230   O858      0.70557      .   S
    C228   O858      0.70557      .   S
    C230   O859      0.69923      .   S
    C324   O859      0.69923      .   S
    C143   O860      0.54391      .   S
    C325   O860      0.54391      .   S
    C142   O861      0.54391      .   S
    C324   O861      0.54391      .   S
    C40    O862      0.54391      .   S
    C186   O862      0.54391      .   S
    C41    O863      0.54390      .   S
    C187   O863      0.54390      .   S
