# CIF file generated by openbabel 2.4.90, see http://openbabel.sf.net
data_I
_chemical_name_common ''
_cell_length_a 9.1965
_cell_length_b 12.7
_cell_length_c 13.4963
_cell_angle_alpha 116.348
_cell_angle_beta 97.1405
_cell_angle_gamma 101.028
_space_group_name_H-M_alt 'P 1'
_space_group_name_Hall 'P 1'
loop_
    _symmetry_equiv_pos_as_xyz
    x,y,z
loop_
    _atom_site_label
    _atom_site_type_symbol
    _atom_site_fract_x
    _atom_site_fract_y
    _atom_site_fract_z
    _atom_site_occupancy
    H0      H    0.33187   0.44746   0.38993   1.000
    H1      H    0.42530   0.50260   0.30737   1.000
    H2      H    0.19244   0.38631   0.14419   1.000
    H3      H    0.09948   0.32899   0.22435   1.000
    H4      H    0.36973   0.83694   0.29246   1.000
    H5      H    0.29937   0.94243   0.40128   1.000
    H6      H    0.09767   0.73981   0.16890   1.000
    H7      H    0.04097   0.86003   0.27154   1.000
    H8      H    0.04156   0.67237   0.61666   1.000
    H9      H    0.04136   0.81690   0.62498   1.000
    H10     H    0.32941   0.88774   0.70244   1.000
    H11     H    0.31971   0.75070   0.70929   1.000
    H12     H    0.66129   0.55036   0.60735   1.000
    H13     H    0.56839   0.49524   0.69014   1.000
    H14     H    0.80144   0.61184   0.85307   1.000
    H15     H    0.89401   0.66905   0.77269   1.000
    H16     H    0.62421   0.16051   0.70422   1.000
    H17     H    0.69619   0.05575   0.59607   1.000
    H18     H    0.89535   0.25894   0.82911   1.000
    H19     H    0.95388   0.13951   0.72706   1.000
    H20     H    0.95227   0.32608   0.38065   1.000
    H21     H    0.95290   0.18163   0.37238   1.000
    H22     H    0.66481   0.11039   0.29496   1.000
    H23     H    0.67408   0.24737   0.28810   1.000
    C24     C    0.19389   0.60428   0.46311   1.000
    C25     C    0.26971   0.65248   0.31481   1.000
    C26     C    0.17889   0.79994   0.46922   1.000
    C27     C    0.31428   0.47188   0.32208   1.000
    C28     C    0.21227   0.36233   0.21263   1.000
    C29     C    0.26981   0.85109   0.32744   1.000
    C30     C    0.13862   0.83589   0.23646   1.000
    C31     C    0.11034   0.75388   0.61834   1.000
    C32     C    0.25536   0.81690   0.71417   1.000
    C33     C    0.79990   0.39391   0.53424   1.000
    C34     C    0.72429   0.34558   0.68253   1.000
    C35     C    0.81587   0.19852   0.52834   1.000
    C36     C    0.67924   0.52605   0.67525   1.000
    C37     C    0.78134   0.63573   0.78459   1.000
    C38     C    0.71144   0.74128   0.82536   1.000
    C39     C    0.72473   0.14704   0.66986   1.000
    C40     C    0.85551   0.16287   0.76147   1.000
    C41     C    0.88372   0.24452   0.37902   1.000
    C42     C    0.73865   0.18131   0.28321   1.000
    N43     N    0.15333   0.71405   0.50825   1.000
    N44     N    0.25053   0.57743   0.36564   1.000
    N45     N    0.23277   0.76283   0.37007   1.000
    N46     N    0.84079   0.28428   0.48914   1.000
    N47     N    0.74323   0.42063   0.63169   1.000
    N48     N    0.76163   0.23539   0.62734   1.000
    O49     O    0.18190   0.53731   0.50651   1.000
    O50     O    0.31864   0.62404   0.22882   1.000
    O51     O    0.15595   0.90032   0.51880   1.000
    O52     O    0.81168   0.46087   0.49085   1.000
    O53     O    0.67526   0.37389   0.76847   1.000
    O54     O    0.83952   0.09838   0.47898   1.000
    O55     O    0.58840   0.76670   0.76670   1.000
loop_
    _geom_bond_atom_site_label_1
    _geom_bond_atom_site_label_2
    _geom_bond_distance
    _geom_bond_site_symmetry_2
    _ccdc_geom_bond_type
    H2     C28       1.09920      .   S
    H6     C30       1.10157      .   S
    C28    H3        1.10111      .   S
    C28    C27       1.52635      .   S
    O50    C25       1.22462      .   S
    C30    H7        1.09854      .   S
    C30    C29       1.52742      .   S
    C42    H23       1.10097      .   S
    C42    H22       1.10316      .   S
    C42    C41       1.52850      .   S
    H4     C29       1.09333      .   S
    H1     C27       1.09580      .   S
    C25    N44       1.39871      .   S
    C25    N45       1.39761      .   S
    C27    N44       1.47411      .   S
    C27    H0        1.09332      .   S
    C29    N45       1.47588      .   S
    C29    H5        1.09481      .   S
    N44    C24       1.39935      .   S
    N45    C26       1.39736      .   S
    H21    C41       1.09351      .   S
    C41    H20       1.09412      .   S
    C41    N46       1.47504      .   S
    C24    O49       1.22506      .   S
    C24    N43       1.39833      .   S
    C26    N43       1.40187      .   S
    C26    O51       1.22404      .   S
    O54    C35       1.22403      .   S
    N46    C35       1.40180      .   S
    N46    C33       1.39833      .   S
    O52    C33       1.22503      .   S
    N43    C31       1.47498      .   S
    C35    N48       1.39745      .   S
    C33    N47       1.39940      .   S
    H17    C39       1.09482      .   S
    H12    C36       1.09332      .   S
    H8     C31       1.09413      .   S
    C31    H9        1.09354      .   S
    C31    C32       1.52839      .   S
    N48    C39       1.47585      .   S
    N48    C34       1.39761      .   S
    N47    C36       1.47418      .   S
    N47    C34       1.39871      .   S
    C39    H16       1.09336      .   S
    C39    C40       1.52730      .   S
    C36    H13       1.09580      .   S
    C36    C37       1.52642      .   S
    C34    O53       1.22464      .   S
    H10    C32       1.10313      .   S
    H11    C32       1.10100      .   S
    H19    C40       1.09851      .   S
    C40    H18       1.10158      .   S
    O55    C38       1.46807      .   S
    H15    C37       1.10112      .   S
    C37    C38       1.50859      .   S
    C37    H14       1.09923      .   S
