# CIF file generated by openbabel 2.4.90, see http://openbabel.sf.net
data_I
_chemical_name_common ''
_cell_length_a 9.1965
_cell_length_b 12.7
_cell_length_c 13.4963
_cell_angle_alpha 116.348
_cell_angle_beta 97.1405
_cell_angle_gamma 101.028
_space_group_name_H-M_alt 'P 1'
_space_group_name_Hall 'P 1'
loop_
    _symmetry_equiv_pos_as_xyz
    x,y,z
loop_
    _atom_site_label
    _atom_site_type_symbol
    _atom_site_fract_x
    _atom_site_fract_y
    _atom_site_fract_z
    _atom_site_occupancy
    Cd0     Cd   0.60220   0.93992   0.89154   1.000
    Cd1     Cd   0.99698   0.99905   0.99867   1.000
    C2      C    0.28217   0.25679   0.17194   1.000
    Cd3     Cd   0.39174   0.05831   0.10583   1.000
    C4      C    0.18550   0.91173   0.17839   1.000
    C5      C    0.23267   0.88060   0.83373   1.000
    C6      C    0.80859   0.08670   0.81921   1.000
    C7      C    0.76132   0.11767   0.16363   1.000
    O8      O    0.40501   0.26294   0.23081   1.000
    O9      O    0.32992   0.95519   0.19446   1.000
    O10     O    0.08135   0.92462   0.11812   1.000
    O11     O    0.35803   0.93371   0.91418   1.000
    O12     O    0.10211   0.88107   0.85069   1.000
    O13     O    0.21582   0.16021   0.07510   1.000
    O14     O    0.66416   0.04288   0.80280   1.000
    O15     O    0.91270   0.07396   0.87963   1.000
    O16     O    0.63596   0.06462   0.08318   1.000
    O17     O    0.89185   0.11715   0.14665   1.000
    O18     O    0.77807   0.92209   0.92209   1.000
loop_
    _geom_bond_atom_site_label_1
    _geom_bond_atom_site_label_2
    _geom_bond_distance
    _geom_bond_site_symmetry_2
    _ccdc_geom_bond_type
    O13    C2        1.29515      .   S
    O13    Cd1       2.31031  1_444   S
    O16    Cd3       2.29522      .   S
    O16    C7        1.30546      .   S
    Cd3    O9        2.17802  1_545   S
    Cd3    O8        2.35588      .   S
    O10    C4        1.26110      .   S
    O10    Cd1       2.32737  1_454   S
    O17    C7        1.25050      .   S
    O17    Cd1       2.35563  1_544   S
    C2     O8        1.26554      .   S
    C4     O9        1.28747      .   S
    O14    C6        1.28748      .   S
    O14    Cd0       2.17785  1_545   S
    C6     O15       1.26099      .   S
    C5     O12       1.25058      .   S
    C5     O11       1.30546      .   S
    O12    Cd1       2.35516  1_455   S
    O15    Cd1       2.32731  1_545   S
    Cd0    O11       2.29483      .   S
    Cd0    O18       1.70129      .   S
    O18    Cd1       1.97731      .   S
    O11    Cd3       2.29572  1_566   S
    O13    Cd3       2.36117      .   S
    O16    Cd0       2.29575  1_544   S
