# CIF file generated by openbabel 2.4.90, see http://openbabel.sf.net
data_I
_chemical_name_common ''
_cell_length_a 9.1965
_cell_length_b 12.7
_cell_length_c 13.4963
_cell_angle_alpha 116.348
_cell_angle_beta 97.1405
_cell_angle_gamma 101.028
_space_group_name_H-M_alt 'P 1'
_space_group_name_Hall 'P 1'
loop_
    _symmetry_equiv_pos_as_xyz
    x,y,z
loop_
    _atom_site_label
    _atom_site_type_symbol
    _atom_site_fract_x
    _atom_site_fract_y
    _atom_site_fract_z
    _atom_site_occupancy
    Zr0     Zr   0.39174   0.05831   0.10583   1.000
    Zr1     Zr   0.60220   0.93992   0.89154   1.000
    Zr2     Zr   0.99698   0.99905   0.99867   1.000
    Zr3     Zr   0.77807   0.92209   0.92209   1.000
    O4      O    0.69014   0.93101   0.90681   1.000
    O5      O    0.88752   0.96057   0.96038   1.000
    N6      N    0.21575   0.68285   0.40851   1.000
    N7      N    0.76945   0.34564   0.60320   1.000
    O8      O    0.68238   0.09948   0.71616   1.000
    C9      C    0.79515   0.06785   0.83388   1.000
    O10     O    0.87500   0.05218   0.88652   1.000
    O11     O    0.79795   0.15153   0.76533   1.000
    O12     O    0.71417   0.02962   0.84053   1.000
    C13     C    0.23094   0.89846   0.86620   1.000
    O14     O    0.30291   0.94723   0.93810   1.000
    O15     O    0.35553   0.91764   0.88453   1.000
    O16     O    0.14024   0.91926   0.89544   1.000
    O17     O    0.23041   0.83213   0.72872   1.000
    C18     C    0.30100   0.22665   0.15928   1.000
    O19     O    0.20370   0.15314   0.09808   1.000
    O20     O    0.26624   0.36143   0.22984   1.000
    C21     C    0.76304   0.09981   0.13115   1.000
    O22     O    0.63845   0.08064   0.11283   1.000
    O23     O    0.69106   0.05104   0.05925   1.000
    O24     O    0.85373   0.07896   0.10191   1.000
    O25     O    0.76138   0.17369   0.27223   1.000
    C26     C    0.19892   0.93051   0.16365   1.000
    O27     O    0.19391   0.85442   0.23581   1.000
    O28     O    0.11905   0.94617   0.11102   1.000
    O29     O    0.27988   0.96863   0.15690   1.000
    O30     O    0.32604   0.18080   0.14434   1.000
loop_
    _geom_bond_atom_site_label_1
    _geom_bond_atom_site_label_2
    _geom_bond_distance
    _geom_bond_site_symmetry_2
    _ccdc_geom_bond_type
    Zr1    O4        0.85064      .   S
    Zr3    O4        0.85064      .   S
    Zr3    O5        0.98865      .   S
    Zr2    O5        0.98865      .   S
    N7     O8        4.03924      .   S
    Zr1    O8        3.79099  1_565   S
    C9     O10       1.06543      .   S
    Zr2    O10       2.18607  1_565   S
    C9     O11       1.68954      .   S
    N7     O11       3.97825      .   S
    C9     O12       0.84575      .   S
    Zr1    O12       1.80433  1_565   S
    C13    O14       0.95573      .   S
    Zr0    O14       2.01160  1_544   S
    C13    O15       1.09666      .   S
    Zr1    O15       2.21646      .   S
    C13    O16       0.99741      .   S
    Zr2    O16       2.10184  1_655   S
    C13    O17       1.66175      .   S
    N6     O17       3.84363      .   S
    C18    O19       1.08012      .   S
    Zr2    O19       2.20359  1_666   S
    C18    O20       1.66644      .   S
    N6     O20       3.86780      .   S
    C21    O22       1.09672      .   S
    Zr0    O22       2.21672      .   S
    C21    O23       0.95572      .   S
    Zr1    O23       2.01161  1_566   S
    C21    O24       0.99752      .   S
    Zr2    O24       2.10223  1_566   S
    C21    O25       1.71259      .   S
    N7     O25       3.99053      .   S
    C26    O27       1.64737      .   S
    N6     O27       3.84445      .   S
    C26    O28       1.06552      .   S
    Zr2    O28       2.18622  1_656   S
    C26    O29       0.84564      .   S
    Zr0    O29       1.80426  1_545   S
    Zr0    O30       1.66582      .   S
    C18    O30       0.62561      .   S
