# CIF file generated by openbabel 2.4.90, see http://openbabel.sf.net
data_I
_chemical_name_common ''
_cell_length_a 9.1965
_cell_length_b 12.7
_cell_length_c 13.4963
_cell_angle_alpha 116.348
_cell_angle_beta 97.1405
_cell_angle_gamma 101.028
_space_group_name_H-M_alt 'P 1'
_space_group_name_Hall 'P 1'
loop_
    _symmetry_equiv_pos_as_xyz
    x,y,z
loop_
    _atom_site_label
    _atom_site_type_symbol
    _atom_site_fract_x
    _atom_site_fract_y
    _atom_site_fract_z
    _atom_site_occupancy
    Zr0     Zr   0.39174   0.05831   0.10583   1.000
    Zr1     Zr   0.60220   0.93992   0.89154   1.000
    Zr2     Zr   0.99698   0.99905   0.99867   1.000
    Zr3     Zr   0.28217   0.25679   0.17194   1.000
    Zr4     Zr   0.18550   0.91173   0.17839   1.000
    Zr5     Zr   0.23267   0.88060   0.83373   1.000
    Zr6     Zr   0.80859   0.08670   0.81921   1.000
    Zr7     Zr   0.76132   0.11767   0.16363   1.000
    Zr8     Zr   0.40501   0.26294   0.23081   1.000
    Zr9     Zr   0.32992   0.95519   0.19446   1.000
    Zr10    Zr   0.08135   0.92462   0.11812   1.000
    Zr11    Zr   0.35803   0.93371   0.91418   1.000
    Zr12    Zr   0.10211   0.88107   0.85069   1.000
    Zr13    Zr   0.21582   0.16021   0.07510   1.000
    Zr14    Zr   0.66416   0.04288   0.80280   1.000
    Zr15    Zr   0.91270   0.07396   0.87963   1.000
    Zr16    Zr   0.63596   0.06462   0.08318   1.000
    Zr17    Zr   0.89185   0.11715   0.14665   1.000
    Zr18    Zr   0.77807   0.92209   0.92209   1.000
    O19     O    0.24899   0.20850   0.12352   1.000
    O20     O    0.10640   0.07963   0.03688   1.000
    O21     O    0.51385   0.06147   0.09450   1.000
    O22     O    0.69864   0.09114   0.12340   1.000
    O23     O    0.36083   0.00675   0.15014   1.000
    O24     O    0.39837   0.16063   0.16832   1.000
    O25     O    0.13342   0.91817   0.14825   1.000
    O26     O    0.03917   0.96183   0.05839   1.000
    O27     O    0.82659   0.11741   0.15514   1.000
    O28     O    0.94442   0.05810   0.07266   1.000
    O29     O    0.34359   0.25986   0.20138   1.000
    O30     O    0.25771   0.93346   0.18642   1.000
    O31     O    0.73638   0.06479   0.81101   1.000
    O32     O    0.63318   0.99140   0.84717   1.000
    O33     O    0.86065   0.08033   0.84942   1.000
    O34     O    0.16739   0.88083   0.84221   1.000
    O35     O    0.29535   0.90715   0.87396   1.000
    O36     O    0.04954   0.94006   0.92468   1.000
    O37     O    0.95484   0.03650   0.93915   1.000
    O38     O    0.48012   0.93682   0.90286   1.000
    O39     O    0.69014   0.93101   0.90681   1.000
    O40     O    0.88752   0.96057   0.96038   1.000
    O41     O    0.37488   0.99601   0.01001   1.000
    O42     O    0.30378   0.10926   0.09046   1.000
    O43     O    0.61908   0.00227   0.98736   1.000
    N44     N    0.21575   0.68285   0.40851   1.000
    O45     O    0.22988   0.76580   0.59123   1.000
    O46     O    0.18890   0.77833   0.30797   1.000
    O47     O    0.23148   0.49620   0.30040   1.000
    N48     N    0.76945   0.34564   0.60320   1.000
    O49     O    0.80075   0.23521   0.69677   1.000
    O50     O    0.75971   0.24756   0.41331   1.000
    O51     O    0.68238   0.09948   0.71616   1.000
loop_
    _geom_bond_atom_site_label_1
    _geom_bond_atom_site_label_2
    _geom_bond_distance
    _geom_bond_site_symmetry_2
    _ccdc_geom_bond_type
    Zr13   O19       0.64758      .   S
    Zr3    O19       0.64758      .   S
    Zr13   O20       1.15516      .   S
    Zr2    O20       1.15516  1_666   S
    Zr16   O21       1.14761      .   S
    Zr0    O21       1.14761      .   S
    Zr16   O22       0.65273      .   S
    Zr7    O22       0.65273      .   S
    Zr0    O23       1.08901      .   S
    Zr9    O23       1.08901  1_565   S
    Zr0    O24       1.17794      .   S
    Zr8    O24       1.17794      .   S
    Zr10   O25       0.63055      .   S
    Zr4    O25       0.63055      .   S
    Zr10   O26       1.16369      .   S
    Zr2    O26       1.16369  1_656   S
    Zr17   O27       0.62525      .   S
    Zr7    O27       0.62525      .   S
    Zr17   O28       1.17781      .   S
    Zr2    O28       1.17781  1_566   S
    Zr3    O29       0.63277      .   S
    Zr8    O29       0.63277      .   S
    Zr4    O30       0.64374      .   S
    Zr9    O30       0.64374      .   S
    Zr14   O31       0.64374      .   S
    Zr6    O31       0.64374      .   S
    Zr14   O32       1.08892  1_545   S
    Zr1    O32       1.08892      .   S
    Zr6    O33       0.63050      .   S
    Zr15   O33       0.63050      .   S
    Zr5    O34       0.62529      .   S
    Zr12   O34       0.62529      .   S
    Zr5    O35       0.65273      .   S
    Zr11   O35       0.65273      .   S
    Zr12   O36       1.17758      .   S
    Zr2    O36       1.17758  1_655   S
    Zr15   O37       1.16365      .   S
    Zr2    O37       1.16365  1_565   S
    Zr1    O38       1.14741      .   S
    Zr11   O38       1.14741      .   S
    Zr1    O39       0.85064      .   S
    Zr18   O39       0.85064      .   S
    Zr18   O40       0.98865      .   S
    Zr2    O40       0.98865      .   S
    Zr11   O41       1.14786  1_556   S
    Zr0    O41       1.14786  1_545   S
    Zr13   O42       1.18058      .   S
    Zr0    O42       1.18058      .   S
    Zr16   O43       1.14787  1_554   S
    Zr1    O43       1.14787  1_565   S
    N44    O45       2.18405      .   S
    Zr5    O45       2.92700      .   S
    N44    O46       2.20554      .   S
    Zr4    O46       2.92677      .   S
    N44    O47       2.20961      .   S
    Zr3    O47       2.92100      .   S
    N48    O49       2.29797      .   S
    Zr6    O49       3.01371      .   S
    N48    O50       2.27911      .   S
    Zr7    O50       3.02727      .   S
    N48    O51       4.03924      .   S
    Zr1    O51       3.79099  1_565   S
