# CIF file generated by openbabel 2.4.90, see http://openbabel.sf.net
data_I
_chemical_name_common ''
_cell_length_a 7.721
_cell_length_b 10.168
_cell_length_c 13.463
_cell_angle_alpha 68.148
_cell_angle_beta 84.677
_cell_angle_gamma 76.446
_space_group_name_H-M_alt 'P 1'
_space_group_name_Hall 'P 1'
loop_
    _symmetry_equiv_pos_as_xyz
    x,y,z
loop_
    _atom_site_label
    _atom_site_type_symbol
    _atom_site_fract_x
    _atom_site_fract_y
    _atom_site_fract_z
    _atom_site_occupancy
    H0      H    0.40093   0.26671   0.52633   1.000
    H1      H    0.06732   0.65247   0.65639   1.000
    H2      H    0.11210   0.70783   0.46211   1.000
    H3      H    0.34281   0.21068   0.72008   1.000
    H4      H    0.59902   0.73318   0.47373   1.000
    H5      H    0.93264   0.34742   0.34367   1.000
    H6      H    0.88783   0.29205   0.53795   1.000
    H7      H    0.65716   0.78921   0.27998   1.000
    C8      C    0.32449   0.35167   0.55371   1.000
    C9      C    0.13965   0.56860   0.62694   1.000
    C10     C    0.20199   0.42826   0.70082   1.000
    C11     C    0.16764   0.59942   0.51802   1.000
    C12     C    0.26184   0.49204   0.47896   1.000
    C13     C    0.29399   0.31973   0.66294   1.000
    C14     C    0.67547   0.64822   0.44635   1.000
    C15     C    0.86030   0.43129   0.37312   1.000
    C16     C    0.79799   0.57163   0.29924   1.000
    C17     C    0.83231   0.40047   0.48204   1.000
    C18     C    0.73810   0.50784   0.52110   1.000
    C19     C    0.70597   0.68016   0.33712   1.000
loop_
    _geom_bond_atom_site_label_1
    _geom_bond_atom_site_label_2
    _geom_bond_distance
    _geom_bond_site_symmetry_2
    _ccdc_geom_bond_type
    H7     C19       1.08913      .   S
    C16    C19       1.40245      .   S
    C16    C15       1.40270      .   S
    C19    C14       1.39261      .   S
    H5     C15       1.08805      .   S
    C15    C17       1.38778      .   S
    C14    H4        1.09005      .   S
    C14    C18       1.40761      .   S
    H2     C11       1.08917      .   S
    C12    C11       1.40773      .   S
    C12    C8        1.40760      .   S
    C17    C18       1.40772      .   S
    C17    H6        1.08919      .   S
    C11    C9        1.38775      .   S
    H0     C8        1.09006      .   S
    C8     C13       1.39261      .   S
    C9     H1        1.08806      .   S
    C9     C10       1.40271      .   S
    C13    C10       1.40245      .   S
    C13    H3        1.08912      .   S
