# CIF file generated by openbabel 2.4.90, see http://openbabel.sf.net
data_I
_chemical_name_common ''
_cell_length_a 7.721
_cell_length_b 10.168
_cell_length_c 13.463
_cell_angle_alpha 68.148
_cell_angle_beta 84.677
_cell_angle_gamma 76.446
_space_group_name_H-M_alt 'P 1'
_space_group_name_Hall 'P 1'
loop_
    _symmetry_equiv_pos_as_xyz
    x,y,z
loop_
    _atom_site_label
    _atom_site_type_symbol
    _atom_site_fract_x
    _atom_site_fract_y
    _atom_site_fract_z
    _atom_site_occupancy
    H0      H    0.27953   0.75619   0.32691   1.000
    H1      H    0.34551   0.63239   0.05204   1.000
    H2      H    0.31323   0.30971   0.36462   1.000
    H3      H    0.72038   0.24371   0.67316   1.000
    H4      H    0.65439   0.36754   0.94802   1.000
    H5      H    0.68674   0.69019   0.63544   1.000
    C6      C    0.31333   0.70911   0.18371   1.000
    C7      C    0.29187   0.67113   0.29449   1.000
    C8      C    0.33056   0.45982   0.20458   1.000
    C9      C    0.33044   0.60344   0.13825   1.000
    C10     C    0.31387   0.42234   0.31569   1.000
    C11     C    0.29054   0.52792   0.36240   1.000
    C12     C    0.68654   0.29081   0.81635   1.000
    C13     C    0.70807   0.32877   0.70557   1.000
    C14     C    0.66933   0.54010   0.79547   1.000
    C15     C    0.66952   0.39648   0.86181   1.000
    C16     C    0.68611   0.57756   0.68436   1.000
    C17     C    0.70934   0.47198   0.63766   1.000
loop_
    _geom_bond_atom_site_label_1
    _geom_bond_atom_site_label_2
    _geom_bond_distance
    _geom_bond_site_symmetry_2
    _ccdc_geom_bond_type
    H1     C9        1.08810      .   S
    C9     C6        1.39812      .   S
    C9     C8        1.39950      .   S
    C6     C7        1.39868      .   S
    C8     C10       1.40084      .   S
    C7     H0        1.08728      .   S
    C7     C11       1.40376      .   S
    C10    C11       1.40406      .   S
    C10    H2        1.08898      .   S
    H5     C16       1.08898      .   S
    C17    C16       1.40403      .   S
    C17    C13       1.40377      .   S
    H3     C13       1.08728      .   S
    C16    C14       1.40084      .   S
    C13    C12       1.39870      .   S
    C14    C15       1.39950      .   S
    C12    C15       1.39814      .   S
    C15    H4        1.08810      .   S
