# CIF file generated by openbabel 2.4.90, see http://openbabel.sf.net
data_I
_chemical_name_common ''
_cell_length_a 7.721
_cell_length_b 10.168
_cell_length_c 13.463
_cell_angle_alpha 68.148
_cell_angle_beta 84.677
_cell_angle_gamma 76.446
_space_group_name_H-M_alt 'P 1'
_space_group_name_Hall 'P 1'
loop_
    _symmetry_equiv_pos_as_xyz
    x,y,z
loop_
    _atom_site_label
    _atom_site_type_symbol
    _atom_site_fract_x
    _atom_site_fract_y
    _atom_site_fract_z
    _atom_site_occupancy
    H0      H    0.27953   0.75619   0.32691   1.000
    H1      H    0.34551   0.63239   0.05204   1.000
    H2      H    0.40093   0.26671   0.52633   1.000
    H3      H    0.31323   0.30971   0.36462   1.000
    H4      H    0.06732   0.65247   0.65639   1.000
    H5      H    0.11210   0.70783   0.46211   1.000
    H6      H    0.34281   0.21068   0.72008   1.000
    H7      H    0.72038   0.24371   0.67316   1.000
    H8      H    0.65439   0.36754   0.94802   1.000
    H9      H    0.59902   0.73318   0.47373   1.000
    H10     H    0.68674   0.69019   0.63544   1.000
    H11     H    0.93264   0.34742   0.34367   1.000
    H12     H    0.88783   0.29205   0.53795   1.000
    H13     H    0.65716   0.78921   0.27998   1.000
    C14     C    0.31333   0.70911   0.18371   1.000
    C15     C    0.29187   0.67113   0.29449   1.000
    C16     C    0.33056   0.45982   0.20458   1.000
    C17     C    0.33044   0.60344   0.13825   1.000
    C18     C    0.32449   0.35167   0.55371   1.000
    C19     C    0.31387   0.42234   0.31569   1.000
    C20     C    0.13965   0.56860   0.62694   1.000
    C21     C    0.20199   0.42826   0.70082   1.000
    C22     C    0.29054   0.52792   0.36240   1.000
    C23     C    0.16764   0.59942   0.51802   1.000
    C24     C    0.26184   0.49204   0.47896   1.000
    C25     C    0.29399   0.31973   0.66294   1.000
    C26     C    0.68654   0.29081   0.81635   1.000
    C27     C    0.70807   0.32877   0.70557   1.000
    C28     C    0.66933   0.54010   0.79547   1.000
    C29     C    0.66952   0.39648   0.86181   1.000
    C30     C    0.67547   0.64822   0.44635   1.000
    C31     C    0.68611   0.57756   0.68436   1.000
    C32     C    0.86030   0.43129   0.37312   1.000
    C33     C    0.79799   0.57163   0.29924   1.000
    C34     C    0.70934   0.47198   0.63766   1.000
    C35     C    0.83231   0.40047   0.48204   1.000
    C36     C    0.73810   0.50784   0.52110   1.000
    C37     C    0.70597   0.68016   0.33712   1.000
loop_
    _geom_bond_atom_site_label_1
    _geom_bond_atom_site_label_2
    _geom_bond_distance
    _geom_bond_site_symmetry_2
    _ccdc_geom_bond_type
    H1     C17       1.08810      .   S
    C17    C14       1.39812      .   S
    C17    C16       1.39950      .   S
    C14    C15       1.39868      .   S
    C16    C19       1.40084      .   S
    H13    C37       1.08913      .   S
    C15    H0        1.08728      .   S
    C15    C22       1.40376      .   S
    C33    C37       1.40245      .   S
    C33    C32       1.40270      .   S
    C19    C22       1.40406      .   S
    C19    H3        1.08898      .   S
    C37    C30       1.39261      .   S
    H11    C32       1.08805      .   S
    C22    C24       1.48056      .   S
    C32    C35       1.38778      .   S
    C30    H9        1.09005      .   S
    C30    C36       1.40761      .   S
    H5     C23       1.08917      .   S
    C24    C23       1.40773      .   S
    C24    C18       1.40760      .   S
    C35    C36       1.40772      .   S
    C35    H12       1.08919      .   S
    C23    C20       1.38775      .   S
    C36    C34       1.48057      .   S
    H2     C18       1.09006      .   S
    C18    C25       1.39261      .   S
    C20    H4        1.08806      .   S
    C20    C21       1.40271      .   S
    H10    C31       1.08898      .   S
    C34    C31       1.40403      .   S
    C34    C27       1.40377      .   S
    C25    C21       1.40245      .   S
    C25    H6        1.08912      .   S
    H7     C27       1.08728      .   S
    C31    C28       1.40084      .   S
    C27    C26       1.39870      .   S
    C28    C29       1.39950      .   S
    C26    C29       1.39814      .   S
    C29    H8        1.08810      .   S
