# CIF file generated by openbabel 2.4.90, see http://openbabel.sf.net
data_I
_chemical_name_common ''
_cell_length_a 7.721
_cell_length_b 10.168
_cell_length_c 13.463
_cell_angle_alpha 68.148
_cell_angle_beta 84.677
_cell_angle_gamma 76.446
_space_group_name_H-M_alt 'P 1'
_space_group_name_Hall 'P 1'
loop_
    _symmetry_equiv_pos_as_xyz
    x,y,z
loop_
    _atom_site_label
    _atom_site_type_symbol
    _atom_site_fract_x
    _atom_site_fract_y
    _atom_site_fract_z
    _atom_site_occupancy
    C0      C    0.32193   0.86188   0.11576   1.000
    C1      C    0.34471   0.34614   0.15758   1.000
    C2      C    0.17009   0.39658   0.81788   1.000
    C3      C    0.67804   0.13803   0.88433   1.000
    C4      C    0.65529   0.65379   0.84245   1.000
    C5      C    0.82989   0.60331   0.18218   1.000
    O6      O    0.28034   0.95696   0.15973   1.000
    O7      O    0.36918   0.89412   0.01735   1.000
    O8      O    0.28887   0.38896   0.05856   1.000
    O9      O    0.40819   0.21510   0.20840   1.000
    O10     O    0.08807   0.50662   0.84227   1.000
    O11     O    0.22157   0.26781   0.88302   1.000
    O12     O    0.71962   0.04294   0.84036   1.000
    O13     O    0.63078   0.10579   0.98272   1.000
    O14     O    0.71111   0.61097   0.94148   1.000
    O15     O    0.59183   0.78482   0.79162   1.000
    O16     O    0.91192   0.49328   0.15778   1.000
    O17     O    0.77845   0.73209   0.11704   1.000
loop_
    _geom_bond_atom_site_label_1
    _geom_bond_atom_site_label_2
    _geom_bond_distance
    _geom_bond_site_symmetry_2
    _ccdc_geom_bond_type
    O7     C0        1.28010      .   S
    O8     C1        1.31880      .   S
    C0     O6        1.27811      .   S
    O17    C5        1.26785      .   S
    C1     O9        1.24945      .   S
    O16    C5        1.28981      .   S
    O15    C4        1.24942      .   S
    C2     O10       1.28983      .   S
    C2     O11       1.26783      .   S
    O12    C3        1.27811      .   S
    C4     O14       1.31882      .   S
    C3     O13       1.28009      .   S
