# CIF file generated by openbabel 2.4.90, see http://openbabel.sf.net
data_I
_chemical_name_common ''
_cell_length_a 7.721
_cell_length_b 10.168
_cell_length_c 13.463
_cell_angle_alpha 68.148
_cell_angle_beta 84.677
_cell_angle_gamma 76.446
_space_group_name_H-M_alt 'P 1'
_space_group_name_Hall 'P 1'
loop_
    _symmetry_equiv_pos_as_xyz
    x,y,z
loop_
    _atom_site_label
    _atom_site_type_symbol
    _atom_site_fract_x
    _atom_site_fract_y
    _atom_site_fract_z
    _atom_site_occupancy
    C0      C    0.32193   0.86188   0.11576   1.000
    C1      C    0.34471   0.34614   0.15758   1.000
    C2      C    0.17009   0.39658   0.81788   1.000
    C3      C    0.67804   0.13803   0.88433   1.000
    C4      C    0.65529   0.65379   0.84245   1.000
    C5      C    0.82989   0.60331   0.18218   1.000
