# CIF file generated by openbabel 2.4.90, see http://openbabel.sf.net
data_I
_chemical_name_common ''
_cell_length_a 7.721
_cell_length_b 10.168
_cell_length_c 13.463
_cell_angle_alpha 68.148
_cell_angle_beta 84.677
_cell_angle_gamma 76.446
_space_group_name_H-M_alt 'P 1'
_space_group_name_Hall 'P 1'
loop_
    _symmetry_equiv_pos_as_xyz
    x,y,z
loop_
    _atom_site_label
    _atom_site_type_symbol
    _atom_site_fract_x
    _atom_site_fract_y
    _atom_site_fract_z
    _atom_site_occupancy
    Zr0     Zr   0.35457   0.15924   0.04682   1.000
    Zr1     Zr   0.64542   0.84064   0.95326   1.000
    Zr2     Zr   0.99998   0.49997   0.00004   1.000
    N3      N    0.68783   0.43412   0.75087   1.000
    N4      N    0.31210   0.56578   0.24919   1.000
    C5      C    0.32381   0.90432   0.09761   1.000
    O6      O    0.41556   0.88585   0.04146   1.000
    O7      O    0.31934   0.78998   0.14854   1.000
    O8      O    0.32063   0.98121   0.10044   1.000
    C9      C    0.67615   0.09558   0.90247   1.000
    O10     O    0.67933   0.01869   0.89964   1.000
    O11     O    0.58441   0.11405   0.95862   1.000
    O12     O    0.68060   0.20993   0.85154   1.000
    C13     C    0.34726   0.31674   0.14151   1.000
    O14     O    0.33606   0.40056   0.17832   1.000
    O15     O    0.24584   0.38060   0.08540   1.000
    C16     C    0.15991   0.39034   0.84772   1.000
    O17     O    0.22399   0.30193   0.90632   1.000
    O18     O    0.10197   0.44682   0.88444   1.000
    O19     O    0.18428   0.41321   0.76136   1.000
    C20     C    0.84009   0.60956   0.15233   1.000
    O21     O    0.89802   0.55309   0.11562   1.000
    O22     O    0.77601   0.69796   0.09374   1.000
    O23     O    0.81570   0.58669   0.23870   1.000
    C24     C    0.65274   0.68319   0.85852   1.000
    O25     O    0.66391   0.59936   0.82172   1.000
    O26     O    0.75414   0.61933   0.91464   1.000
    O27     O    0.34940   0.27369   0.11583   1.000
    O28     O    0.65059   0.72623   0.88421   1.000
loop_
    _geom_bond_atom_site_label_1
    _geom_bond_atom_site_label_2
    _geom_bond_distance
    _geom_bond_site_symmetry_2
    _ccdc_geom_bond_type
    C5     O6        1.02591      .   S
    Zr1    O6        2.09855  1_556   S
    C5     O7        1.11534      .   S
    N4     O7        2.18681      .   S
    C5     O8        0.79139      .   S
    Zr0    O8        1.75529  1_545   S
    C9     O10       0.79145      .   S
    Zr1    O10       1.75539  1_565   S
    C9     O11       1.02586      .   S
    Zr0    O11       2.09842  1_554   S
    C9     O12       1.11535      .   S
    N3     O12       2.18683      .   S
    C13    O14       1.11870      .   S
    N4     O14       2.18667      .   S
    C13    O15       1.05436      .   S
    Zr2    O15       2.16427  1_655   S
    C16    O17       1.00560      .   S
    Zr0    O17       2.07956  1_554   S
    C16    O18       0.90782      .   S
    Zr2    O18       1.87973  1_654   S
    C16    O19       1.10459      .   S
    N4     O19       7.48463  1_554   S
    C20    O21       0.90770      .   S
    Zr2    O21       1.87939      .   S
    C20    O22       1.00554      .   S
    Zr1    O22       2.07943  1_556   S
    C20    O23       1.10461      .   S
    N3     O23       7.48468  1_556   S
    C24    O25       1.11869      .   S
    N3     O25       2.18667      .   S
    C24    O26       1.05437      .   S
    Zr2    O26       2.16423  1_554   S
    C13    O27       0.64779      .   S
    Zr0    O27       1.73068      .   S
    C24    O28       0.64781      .   S
    Zr1    O28       1.73076      .   S
