# CIF file generated by openbabel 2.4.90, see http://openbabel.sf.net
data_I
_chemical_name_common ''
_cell_length_a 18.416
_cell_length_b 18.423
_cell_length_c 18.422
_cell_angle_alpha 60.238
_cell_angle_beta 60.207
_cell_angle_gamma 60.208
_space_group_name_H-M_alt 'P 1'
_space_group_name_Hall 'P 1'
loop_
    _symmetry_equiv_pos_as_xyz
    x,y,z
loop_
    _atom_site_label
    _atom_site_type_symbol
    _atom_site_fract_x
    _atom_site_fract_y
    _atom_site_fract_z
    _atom_site_occupancy
    H0      H    0.04851   0.56801   0.04852   1.000
    H1      H    0.56820   0.04808   0.33574   1.000
    H2      H    0.04765   0.33575   0.04766   1.000
    H3      H    0.33563   0.04818   0.56800   1.000
    H4      H    0.04765   0.04767   0.33575   1.000
    H5      H    0.56819   0.33574   0.04807   1.000
    H6      H    0.04852   0.04851   0.56804   1.000
    H7      H    0.33562   0.56804   0.04819   1.000
    H8      H    0.04816   0.33573   0.56804   1.000
    H9      H    0.56812   0.04847   0.04846   1.000
    H10     H    0.04816   0.56801   0.33574   1.000
    H11     H    0.33564   0.04774   0.04773   1.000
    H12     H    0.43189   0.95151   0.95155   1.000
    H13     H    0.95185   0.43197   0.66427   1.000
    H14     H    0.66437   0.95224   0.95228   1.000
    H15     H    0.95186   0.66424   0.43198   1.000
    H16     H    0.95236   0.95230   0.66426   1.000
    H17     H    0.66439   0.43193   0.95182   1.000
    H18     H    0.95149   0.95146   0.43198   1.000
    H19     H    0.43182   0.66423   0.95194   1.000
    H20     H    0.66438   0.95179   0.43195   1.000
    H21     H    0.95150   0.43196   0.95100   1.000
    H22     H    0.43181   0.95190   0.66427   1.000
    H23     H    0.95236   0.66422   0.95235   1.000
    C24     C    0.02688   0.53897   0.02688   1.000
    C25     C    0.53911   0.02663   0.40770   1.000
    C26     C    0.02639   0.40770   0.02640   1.000
    C27     C    0.40764   0.02668   0.53903   1.000
    C28     C    0.02639   0.02640   0.40771   1.000
    C29     C    0.53910   0.40769   0.02662   1.000
    C30     C    0.02689   0.02688   0.53899   1.000
    C31     C    0.40763   0.53901   0.02669   1.000
    C32     C    0.02667   0.40769   0.53902   1.000
    C33     C    0.53903   0.02686   0.02680   1.000
    C34     C    0.02667   0.53900   0.40770   1.000
    C35     C    0.40764   0.02644   0.02644   1.000
    C36     C    0.46098   0.97311   0.97316   1.000
    C37     C    0.97334   0.46098   0.59231   1.000
    C38     C    0.59237   0.97353   0.97358   1.000
    C39     C    0.97334   0.59228   0.46099   1.000
    C40     C    0.97362   0.97357   0.59230   1.000
    C41     C    0.59238   0.46096   0.97332   1.000
    C42     C    0.97312   0.97309   0.46102   1.000
    C43     C    0.46091   0.59228   0.97339   1.000
    C44     C    0.59237   0.97328   0.46098   1.000
    C45     C    0.97313   0.46100   0.97313   1.000
    C46     C    0.46090   0.97334   0.59231   1.000
    C47     C    0.97362   0.59227   0.97362   1.000
    C48     C    0.05362   0.44632   0.05364   1.000
    C49     C    0.44641   0.05367   0.44600   1.000
    C50     C    0.05362   0.05364   0.44634   1.000
    C51     C    0.44640   0.44638   0.05367   1.000
    C52     C    0.05368   0.44637   0.44639   1.000
    C53     C    0.44632   0.05365   0.05365   1.000
    C54     C    0.55369   0.94632   0.94636   1.000
    C55     C    0.94633   0.55360   0.55363   1.000
    C56     C    0.94639   0.94633   0.55368   1.000
    C57     C    0.55361   0.55359   0.94635   1.000
    C58     C    0.55360   0.94631   0.55362   1.000
    C59     C    0.94639   0.55365   0.94637   1.000
loop_
    _geom_bond_atom_site_label_1
    _geom_bond_atom_site_label_2
    _geom_bond_distance
    _geom_bond_site_symmetry_2
    _ccdc_geom_bond_type
    C26    H2        1.08862      .   S
    C26    C48       1.40313      .   S
    C26    C45       1.38999  1_454   S
    C35    H11       1.08861      .   S
    C35    C53       1.40315      .   S
    C35    C36       1.39059  1_544   S
    C29    H5        1.08860      .   S
    C29    C51       1.40316      .   S
    C29    C41       1.39020  1_554   S
    C31    H7        1.08859      .   S
    C31    C51       1.40318      .   S
    C31    C43       1.39020  1_554   S
    C33    H9        1.08937      .   S
    C33    C53       1.40331      .   S
    C33    C38       1.38981  1_544   S
    C24    H0        1.08865      .   S
    C24    C48       1.40339      .   S
    C24    C47       1.38986  1_454   S
    H10    C34       1.08860      .   S
    H1     C25       1.08860      .   S
    H4     C28       1.08865      .   S
    C25    C49       1.40261      .   S
    C25    C44       1.39019  1_545   S
    C34    C52       1.40313      .   S
    C34    C39       1.39023  1_455   S
    C28    C50       1.40320      .   S
    C28    C42       1.39065  1_445   S
    H20    C44       1.08859      .   S
    H18    C42       1.08855      .   S
    H15    C39       1.08858      .   S
    C49    C27       1.40887      .   S
    C50    C30       1.40333      .   S
    C52    C32       1.40308      .   S
    C44    C58       1.40320      .   S
    C39    C55       1.40322      .   S
    C42    C56       1.40349      .   S
    C30    H6        1.08869      .   S
    C30    C40       1.39066  1_445   S
    C32    H8        1.08859      .   S
    C32    C37       1.39023  1_455   S
    C27    H3        1.08852      .   S
    C27    C46       1.39019  1_545   S
    C58    C46       1.40317      .   S
    C55    C37       1.40311      .   S
    C56    C40       1.40304      .   S
    C40    H16       1.08865      .   S
    C37    H13       1.08860      .   S
    C46    H22       1.08860      .   S
    C57    C41       1.40318      .   S
    C57    C43       1.40316      .   S
    C54    C36       1.40338      .   S
    C54    C38       1.40327      .   S
    C59    C45       1.40339      .   S
    C59    C47       1.40326      .   S
    H21    C45       1.09581      .   S
    H12    C36       1.08860      .   S
    H17    C41       1.08859      .   S
    H19    C43       1.08860      .   S
    H14    C38       1.08860      .   S
    H23    C47       1.08861      .   S
