# CIF file generated by openbabel 2.4.90, see http://openbabel.sf.net
data_I
_chemical_name_common ''
_cell_length_a 18.416
_cell_length_b 18.423
_cell_length_c 18.422
_cell_angle_alpha 60.238
_cell_angle_beta 60.207
_cell_angle_gamma 60.208
_space_group_name_H-M_alt 'P 1'
_space_group_name_Hall 'P 1'
loop_
    _symmetry_equiv_pos_as_xyz
    x,y,z
loop_
    _atom_site_label
    _atom_site_type_symbol
    _atom_site_fract_x
    _atom_site_fract_y
    _atom_site_fract_z
    _atom_site_occupancy
    N0      N    0.00001   0.49999   0.99996   1.000
    N1      N    0.50001   0.99999   0.49996   1.000
    N2      N    0.50001   0.49999   0.00001   1.000
    N3      N    0.50000   0.99999   0.00000   1.000
    N4      N    0.00001   0.49999   0.50001   1.000
    N5      N    0.00001   0.99999   0.50001   1.000
    Zr6     Zr   0.25003   0.25005   0.24966   1.000
    O7      O    0.14558   0.14560   0.35313   1.000
    O8      O    0.35445   0.14562   0.35421   1.000
    O9      O    0.14562   0.35445   0.35427   1.000
    O10     O    0.14558   0.35444   0.14540   1.000
    O11     O    0.35442   0.14560   0.14541   1.000
    O12     O    0.35445   0.35445   0.14543   1.000
    Zr13    Zr   0.74998   0.74992   0.74995   1.000
    O14     O    0.64556   0.85435   0.64553   1.000
    O15     O    0.85439   0.64552   0.64555   1.000
    O16     O    0.85443   0.64554   0.85439   1.000
    O17     O    0.64556   0.64552   0.85438   1.000
    O18     O    0.85443   0.85437   0.64557   1.000
    O19     O    0.64559   0.85437   0.85440   1.000
loop_
    _geom_bond_atom_site_label_1
    _geom_bond_atom_site_label_2
    _geom_bond_distance
    _geom_bond_site_symmetry_2
    _ccdc_geom_bond_type
    Zr6    O7        2.72561      .   S
    N5     O7        3.79963  1_565   S
    Zr6    O8        2.72662      .   S
    N1     O8        3.80083  1_565   S
    Zr6    O9        2.72623      .   S
    N4     O9        3.79945      .   S
    Zr6    O10       2.72319      .   S
    N0     O10       3.79714  1_556   S
    Zr6    O11       2.72227      .   S
    N3     O11       3.79624  1_565   S
    Zr6    O12       2.72478      .   S
    N2     O12       3.79801      .   S
    Zr13   O14       2.72496      .   S
    N1     O14       3.79852      .   S
    Zr13   O15       2.72361      .   S
    N4     O15       3.79688  1_455   S
    Zr13   O16       2.72541      .   S
    N0     O16       3.79881  1_455   S
    Zr13   O17       2.72478      .   S
    N2     O17       3.79802  1_554   S
    Zr13   O18       2.72565      .   S
    N5     O18       3.79945  1_455   S
    Zr13   O19       2.72480      .   S
    N3     O19       3.79871  1_554   S
