# CIF file generated by openbabel 2.4.90, see http://openbabel.sf.net
data_I
_chemical_name_common ''
_cell_length_a 13.716
_cell_length_b 14.213
_cell_length_c 15.984
_cell_angle_alpha 90
_cell_angle_beta 90.002
_cell_angle_gamma 90.003
_space_group_name_H-M_alt 'P 1'
_space_group_name_Hall 'P 1'
loop_
    _symmetry_equiv_pos_as_xyz
    x,y,z
loop_
    _atom_site_label
    _atom_site_type_symbol
    _atom_site_fract_x
    _atom_site_fract_y
    _atom_site_fract_z
    _atom_site_occupancy
    Zr0     Zr   0.46908   0.76398   0.99910   1.000
    Zr1     Zr   0.96908   0.76398   0.99910   1.000
    Zr2     Zr   0.28089   0.23605   0.49910   1.000
    Zr3     Zr   0.78090   0.23605   0.49910   1.000
    Zr4     Zr   0.03075   0.26363   0.49869   1.000
    Zr5     Zr   0.53075   0.26363   0.49869   1.000
    Zr6     Zr   0.21922   0.73640   0.99869   1.000
    Zr7     Zr   0.71923   0.73641   0.99869   1.000
    Zr8     Zr   0.11325   0.86898   0.88639   1.000
    Zr9     Zr   0.61326   0.86898   0.88639   1.000
    Zr10    Zr   0.13628   0.13757   0.61630   1.000
    Zr11    Zr   0.63629   0.13757   0.61638   1.000
    Zr12    Zr   0.13668   0.13106   0.38637   1.000
    Zr13    Zr   0.63669   0.13106   0.38637   1.000
    Zr14    Zr   0.11370   0.86246   0.11637   1.000
    Zr15    Zr   0.61371   0.86247   0.11637   1.000
    Zr16    Zr   0.38643   0.36856   0.61160   1.000
    Zr17    Zr   0.88644   0.36856   0.61169   1.000
    Zr18    Zr   0.36322   0.63737   0.88171   1.000
    Zr19    Zr   0.86323   0.63737   0.88171   1.000
    Zr20    Zr   0.36354   0.63147   0.11168   1.000
    Zr21    Zr   0.86355   0.63147   0.11160   1.000
    Zr22    Zr   0.38673   0.36266   0.38171   1.000
    Zr23    Zr   0.88674   0.36266   0.38171   1.000
    Zr24    Zr   0.35833   0.80607   0.00013   1.000
    Zr25    Zr   0.85834   0.80607   0.00013   1.000
    Zr26    Zr   0.02850   0.84753   0.91339   1.000
    Zr27    Zr   0.52851   0.84753   0.91339   1.000
    Zr28    Zr   0.22073   0.15649   0.58723   1.000
    Zr29    Zr   0.72074   0.15649   0.58723   1.000
    Zr30    Zr   0.19371   0.83490   0.91336   1.000
    Zr31    Zr   0.69372   0.83489   0.91336   1.000
    Zr32    Zr   0.05586   0.17252   0.59013   1.000
    Zr33    Zr   0.55587   0.17252   0.59010   1.000
    Zr34    Zr   0.39165   0.19395   0.50014   1.000
    Zr35    Zr   0.89166   0.19395   0.50010   1.000
    Zr36    Zr   0.22144   0.15250   0.41338   1.000
    Zr37    Zr   0.72145   0.15250   0.41338   1.000
    Zr38    Zr   0.02925   0.84354   0.08722   1.000
    Zr39    Zr   0.52926   0.84354   0.08722   1.000
    Zr40    Zr   0.05622   0.16514   0.41334   1.000
    Zr41    Zr   0.55623   0.16514   0.41334   1.000
    Zr42    Zr   0.19411   0.82751   0.09013   1.000
    Zr43    Zr   0.69412   0.82751   0.09013   1.000
    Zr44    Zr   0.14168   0.30516   0.49722   1.000
    Zr45    Zr   0.64169   0.30516   0.49720   1.000
    Zr46    Zr   0.47097   0.34885   0.58313   1.000
    Zr47    Zr   0.97098   0.34884   0.58313   1.000
    Zr48    Zr   0.27856   0.65816   0.90931   1.000
    Zr49    Zr   0.77857   0.65815   0.90931   1.000
    Zr50    Zr   0.30608   0.33292   0.58605   1.000
    Zr51    Zr   0.80609   0.33292   0.58605   1.000
    Zr52    Zr   0.44367   0.67084   0.90930   1.000
    Zr53    Zr   0.94368   0.67084   0.90930   1.000
    Zr54    Zr   0.10829   0.69487   0.99723   1.000
    Zr55    Zr   0.60830   0.69487   0.99723   1.000
    Zr56    Zr   0.27901   0.65119   0.08312   1.000
    Zr57    Zr   0.77902   0.65119   0.08312   1.000
    Zr58    Zr   0.47139   0.34187   0.40930   1.000
    Zr59    Zr   0.97140   0.34187   0.40930   1.000
    Zr60    Zr   0.44389   0.66710   0.08604   1.000
    Zr61    Zr   0.94390   0.66710   0.08600   1.000
    Zr62    Zr   0.30627   0.32919   0.40930   1.000
    Zr63    Zr   0.80628   0.32919   0.40930   1.000
    O64     O    0.78878   0.77124   0.99941   1.000
    O65     O    0.91371   0.78502   0.99962   1.000
    O66     O    0.28877   0.77124   0.99941   1.000
    O67     O    0.41370   0.78502   0.99962   1.000
    O68     O    0.32128   0.64133   0.09740   1.000
    O69     O    0.24912   0.69380   0.04091   1.000
    O70     O    0.82128   0.64133   0.09736   1.000
    O71     O    0.74912   0.69380   0.04091   1.000
    O72     O    0.90373   0.64929   0.09880   1.000
    O73     O    0.95649   0.71554   0.04255   1.000
    O74     O    0.40372   0.64929   0.09886   1.000
    O75     O    0.45649   0.71554   0.04257   1.000
    O76     O    0.07147   0.85300   0.10180   1.000
    O77     O    0.99917   0.80376   0.04316   1.000
    O78     O    0.57148   0.85300   0.10180   1.000
    O79     O    0.49917   0.80376   0.04316   1.000
    O80     O    0.65392   0.84499   0.10325   1.000
    O81     O    0.70668   0.78196   0.04441   1.000
    O82     O    0.15391   0.84498   0.10325   1.000
    O83     O    0.20667   0.78196   0.04441   1.000
    O84     O    0.84651   0.34593   0.39551   1.000
    O85     O    0.92907   0.35227   0.39551   1.000
    O86     O    0.34650   0.34592   0.39551   1.000
    O87     O    0.42906   0.35227   0.39551   1.000
    O88     O    0.09645   0.14810   0.39986   1.000
    O89     O    0.17906   0.14178   0.39988   1.000
    O90     O    0.59646   0.14810   0.39986   1.000
    O91     O    0.67907   0.14178   0.39988   1.000
    O92     O    0.79359   0.28262   0.45420   1.000
    O93     O    0.29358   0.28262   0.45420   1.000
    O94     O    0.00107   0.30275   0.45400   1.000
    O95     O    0.50107   0.30275   0.45400   1.000
    O96     O    0.04348   0.21438   0.45602   1.000
    O97     O    0.54349   0.21438   0.45602   1.000
    O98     O    0.25117   0.19427   0.45624   1.000
    O99     O    0.75117   0.19427   0.45624   1.000
    O100    O    0.58622   0.28439   0.49795   1.000
    O101    O    0.71130   0.27060   0.49815   1.000
    O102    O    0.08621   0.28439   0.49796   1.000
    O103    O    0.21129   0.27060   0.49816   1.000
    O104    O    0.46120   0.22879   0.49942   1.000
    O105    O    0.50086   0.30624   0.54091   1.000
    O106    O    0.54331   0.21807   0.54440   1.000
    O107    O    0.96120   0.22879   0.49940   1.000
    O108    O    0.00086   0.30624   0.54091   1.000
    O109    O    0.04331   0.21807   0.54441   1.000
    O110    O    0.83628   0.21500   0.49960   1.000
    O111    O    0.79350   0.28448   0.54258   1.000
    O112    O    0.75082   0.19627   0.54317   1.000
    O113    O    0.33627   0.21500   0.49962   1.000
    O114    O    0.29349   0.28448   0.54258   1.000
    O115    O    0.25081   0.19627   0.54317   1.000
    O116    O    0.42870   0.35870   0.59737   1.000
    O117    O    0.92871   0.35870   0.59741   1.000
    O118    O    0.34626   0.35074   0.59883   1.000
    O119    O    0.84626   0.35074   0.59887   1.000
    O120    O    0.67851   0.14703   0.60181   1.000
    O121    O    0.17851   0.14703   0.60177   1.000
    O122    O    0.59608   0.15504   0.60324   1.000
    O123    O    0.09607   0.15504   0.60322   1.000
    O124    O    0.40345   0.65411   0.89551   1.000
    O125    O    0.32089   0.64776   0.89551   1.000
    O126    O    0.90345   0.65411   0.89551   1.000
    O127    O    0.82090   0.64776   0.89551   1.000
    O128    O    0.15348   0.85194   0.89988   1.000
    O129    O    0.07088   0.85825   0.89989   1.000
    O130    O    0.65349   0.85194   0.89988   1.000
    O131    O    0.57088   0.85825   0.89989   1.000
    O132    O    0.45637   0.71741   0.95420   1.000
    O133    O    0.95638   0.71741   0.95420   1.000
    O134    O    0.24889   0.69728   0.95400   1.000
    O135    O    0.74890   0.69728   0.95400   1.000
    O136    O    0.20647   0.78565   0.95603   1.000
    O137    O    0.70647   0.78565   0.95603   1.000
    O138    O    0.99879   0.80575   0.95625   1.000
    O139    O    0.49879   0.80575   0.95625   1.000
    O140    O    0.66376   0.71564   0.99796   1.000
    O141    O    0.53869   0.72942   0.99817   1.000
    O142    O    0.16376   0.71564   0.99796   1.000
    O143    O    0.03869   0.72942   0.99817   1.000
    N144    N    0.12491   0.00423   0.75213   1.000
    O145    O    0.12058   0.95413   0.80204   1.000
    O146    O    0.12915   0.05380   0.70180   1.000
    N147    N    0.62506   0.99583   0.25209   1.000
    O148    O    0.62937   0.04592   0.30200   1.000
    O149    O    0.62082   0.94625   0.20176   1.000
    N150    N    0.87516   0.49647   0.24625   1.000
    O151    O    0.87084   0.54651   0.19622   1.000
    O152    O    0.87948   0.44675   0.29648   1.000
    N153    N    0.37516   0.49646   0.24624   1.000
    O154    O    0.37947   0.44674   0.29648   1.000
    O155    O    0.37083   0.54650   0.19624   1.000
    N156    N    0.37480   0.50358   0.74618   1.000
    O157    O    0.37913   0.45354   0.69619   1.000
    O158    O    0.37049   0.55330   0.79644   1.000
    N159    N    0.87481   0.50357   0.74624   1.000
    O160    O    0.87049   0.55329   0.79647   1.000
    O161    O    0.87914   0.45353   0.69624   1.000
    N162    N    0.12506   0.99582   0.25211   1.000
    O163    O    0.12082   0.94624   0.20180   1.000
    O164    O    0.12937   0.04592   0.30202   1.000
    N165    N    0.62491   0.00422   0.75204   1.000
    O166    O    0.62059   0.95412   0.80187   1.000
    O167    O    0.62916   0.05379   0.70177   1.000
loop_
    _geom_bond_atom_site_label_1
    _geom_bond_atom_site_label_2
    _geom_bond_distance
    _geom_bond_site_symmetry_2
    _ccdc_geom_bond_type
    Zr25   O64       1.07483  1_554   S
    Zr7    O64       1.07483      .   S
    Zr25   O65       0.81636  1_554   S
    Zr1    O65       0.81636      .   S
    Zr24   O66       1.07483  1_554   S
    Zr6    O66       1.07483      .   S
    Zr24   O67       0.81636  1_554   S
    Zr0    O67       0.81636      .   S
    Zr56   O68       0.63862      .   S
    Zr20   O68       0.63862      .   S
    Zr56   O69       0.99508      .   S
    Zr6    O69       0.99508  1_556   S
    Zr57   O70       0.63839      .   S
    Zr21   O70       0.63839      .   S
    Zr57   O71       0.99508      .   S
    Zr7    O71       0.99508  1_556   S
    Zr61   O72       0.64001      .   S
    Zr21   O72       0.64001      .   S
    Zr61   O73       0.99302      .   S
    Zr1    O73       0.99302  1_556   S
    Zr60   O74       0.64012      .   S
    Zr20   O74       0.64012      .   S
    Zr60   O75       0.99325      .   S
    Zr0    O75       0.99325  1_556   S
    Zr38   O76       0.63856      .   S
    Zr14   O76       0.63856      .   S
    Zr38   O77       0.99292  1_455   S
    Zr1    O77       0.99292  1_556   S
    Zr39   O78       0.63856      .   S
    Zr15   O78       0.63856      .   S
    Zr39   O79       0.99297      .   S
    Zr0    O79       0.99297  1_556   S
    Zr43   O80       0.64020      .   S
    Zr15   O80       0.64020      .   S
    Zr43   O81       0.99140      .   S
    Zr7    O81       0.99140  1_556   S
    Zr42   O82       0.64019      .   S
    Zr14   O82       0.64019      .   S
    Zr42   O83       0.99140      .   S
    Zr6    O83       0.99140  1_556   S
    Zr23   O84       0.64004      .   S
    Zr63   O84       0.64004      .   S
    Zr23   O85       0.63840      .   S
    Zr59   O85       0.63840      .   S
    Zr22   O86       0.64003      .   S
    Zr62   O86       0.64003      .   S
    Zr22   O87       0.63839      .   S
    Zr58   O87       0.63839      .   S
    Zr12   O88       0.64002      .   S
    Zr40   O88       0.64002      .   S
    Zr12   O89       0.63850      .   S
    Zr36   O89       0.63850      .   S
    Zr13   O90       0.64001      .   S
    Zr41   O90       0.64001      .   S
    Zr13   O91       0.63850      .   S
    Zr37   O91       0.63850      .   S
    Zr63   O92       0.99174      .   S
    Zr3    O92       0.99174      .   S
    Zr62   O93       0.99172      .   S
    Zr2    O93       0.99172      .   S
    Zr59   O94       0.99259  1_655   S
    Zr4    O94       0.99259      .   S
    Zr58   O95       0.99263      .   S
    Zr5    O95       0.99263      .   S
    Zr40   O96       0.99280      .   S
    Zr4    O96       0.99280      .   S
    Zr41   O97       0.99281      .   S
    Zr5    O97       0.99281      .   S
    Zr36   O98       0.99401      .   S
    Zr2    O98       0.99401      .   S
    Zr37   O99       0.99399      .   S
    Zr3    O99       0.99399      .   S
    Zr45   O100      0.81611      .   S
    Zr5    O100      0.81611      .   S
    Zr45   O101      1.07378      .   S
    Zr3    O101      1.07378      .   S
    Zr44   O102      0.81611      .   S
    Zr4    O102      0.81611      .   S
    Zr44   O103      1.07377      .   S
    Zr2    O103      1.07377      .   S
    Zr5    O104      1.07489      .   S
    Zr34   O104      1.07489      .   S
    Zr5    O105      0.99515      .   S
    Zr46   O105      0.99515      .   S
    Zr5    O106      0.99126      .   S
    Zr33   O106      0.99126      .   S
    Zr4    O107      1.07478  1_455   S
    Zr35   O107      1.07478      .   S
    Zr4    O108      0.99510      .   S
    Zr47   O108      0.99510  1_655   S
    Zr4    O109      0.99144      .   S
    Zr32   O109      0.99144      .   S
    Zr3    O110      0.81639      .   S
    Zr35   O110      0.81639      .   S
    Zr3    O111      0.99328      .   S
    Zr51   O111      0.99328      .   S
    Zr3    O112      0.99297      .   S
    Zr29   O112      0.99297      .   S
    Zr2    O113      0.81639      .   S
    Zr34   O113      0.81639      .   S
    Zr2    O114      0.99328      .   S
    Zr50   O114      0.99328      .   S
    Zr2    O115      0.99296      .   S
    Zr28   O115      0.99296      .   S
    Zr46   O116      0.63841      .   S
    Zr16   O116      0.63841      .   S
    Zr47   O117      0.63867      .   S
    Zr17   O117      0.63867      .   S
    Zr50   O118      0.63990      .   S
    Zr16   O118      0.63990      .   S
    Zr51   O119      0.64013      .   S
    Zr17   O119      0.64013      .   S
    Zr29   O120      0.63857      .   S
    Zr11   O120      0.63857      .   S
    Zr28   O121      0.63833      .   S
    Zr10   O121      0.63833      .   S
    Zr33   O122      0.64028      .   S
    Zr11   O122      0.64028      .   S
    Zr32   O123      0.63999      .   S
    Zr10   O123      0.63999      .   S
    Zr18   O124      0.64000      .   S
    Zr52   O124      0.64000      .   S
    Zr18   O125      0.63842      .   S
    Zr48   O125      0.63842      .   S
    Zr19   O126      0.64001      .   S
    Zr53   O126      0.64001      .   S
    Zr19   O127      0.63842      .   S
    Zr49   O127      0.63842      .   S
    Zr8    O128      0.64000      .   S
    Zr30   O128      0.64000      .   S
    Zr8    O129      0.63849      .   S
    Zr26   O129      0.63849      .   S
    Zr9    O130      0.64001      .   S
    Zr31   O130      0.64001      .   S
    Zr9    O131      0.63847      .   S
    Zr27   O131      0.63847      .   S
    Zr52   O132      0.99169      .   S
    Zr0    O132      0.99169      .   S
    Zr53   O133      0.99169      .   S
    Zr1    O133      0.99169      .   S
    Zr48   O134      0.99254      .   S
    Zr6    O134      0.99254      .   S
    Zr49   O135      0.99255      .   S
    Zr7    O135      0.99255      .   S
    Zr30   O136      0.99276      .   S
    Zr6    O136      0.99276      .   S
    Zr31   O137      0.99274      .   S
    Zr7    O137      0.99274      .   S
    Zr26   O138      0.99388  1_455   S
    Zr1    O138      0.99388      .   S
    Zr27   O139      0.99393      .   S
    Zr0    O139      0.99393      .   S
    Zr55   O140      0.81608      .   S
    Zr7    O140      0.81608      .   S
    Zr55   O141      1.07382      .   S
    Zr0    O141      1.07382      .   S
    Zr54   O142      0.81608      .   S
    Zr6    O142      0.81608      .   S
    Zr54   O143      1.07372      .   S
    Zr1    O143      1.07372  1_655   S
    N144   O145      1.07092  1_545   S
    Zr8    O145      1.81451      .   S
    N144   O146      1.07109      .   S
    Zr10   O146      1.81510      .   S
    N147   O148      1.07098  1_565   S
    Zr13   O148      1.81458      .   S
    N147   O149      1.07102      .   S
    Zr15   O149      1.81397      .   S
    N150   O151      1.07174      .   S
    Zr21   O151      1.81602      .   S
    N150   O152      1.07129      .   S
    Zr23   O152      1.81497      .   S
    N153   O154      1.07130      .   S
    Zr22   O154      1.81496      .   S
    N153   O155      1.07146      .   S
    Zr20   O155      1.81533      .   S
    N156   O157      1.07137      .   S
    Zr16   O157      1.81572      .   S
    N156   O158      1.07163      .   S
    Zr18   O158      1.81530      .   S
    N159   O160      1.07127      .   S
    Zr19   O160      1.81495      .   S
    N159   O161      1.07142      .   S
    Zr17   O161      1.81529      .   S
    N162   O163      1.07088      .   S
    Zr14   O163      1.81434      .   S
    N162   O164      1.07089  1_565   S
    Zr12   O164      1.81445      .   S
    N165   O166      1.06995  1_545   S
    Zr9    O166      1.81648      .   S
    N165   O167      1.07036      .   S
    Zr11   O167      1.81384      .   S
