# CIF file generated by openbabel 2.4.90, see http://openbabel.sf.net
data_I
_chemical_name_common ''
_cell_length_a 13.464
_cell_length_b 14.949
_cell_length_c 14.953
_cell_angle_alpha 89.953
_cell_angle_beta 89.982
_cell_angle_gamma 89.964
_space_group_name_H-M_alt 'P 1'
_space_group_name_Hall 'P 1'
loop_
    _symmetry_equiv_pos_as_xyz
    x,y,z
loop_
    _atom_site_label
    _atom_site_type_symbol
    _atom_site_fract_x
    _atom_site_fract_y
    _atom_site_fract_z
    _atom_site_occupancy
    Zr0     Zr   0.50003   0.74539   0.74510   1.000
    Zr1     Zr   0.00006   0.25500   0.25486   1.000
    Zr2     Zr   0.75005   0.75503   0.24511   1.000
    Zr3     Zr   0.25008   0.24510   0.75515   1.000
    N4      N    0.35436   0.48450   0.15635   1.000
    O5      O    0.20617   0.38981   0.18435   1.000
    O6      O    0.52716   0.58530   0.20586   1.000
    N7      N    0.10424   0.65630   0.01513   1.000
    O8      O    0.27709   0.70593   0.91457   1.000
    O9      O    0.95607   0.68440   0.11010   1.000
    N10     N    0.85429   0.51594   0.84366   1.000
    O11     O    0.70610   0.61063   0.81566   1.000
    N12     N    0.39615   0.98461   0.34383   1.000
    O13     O    0.54425   0.88990   0.31577   1.000
    N14     N    0.89603   0.01504   0.65633   1.000
    O15     O    0.72309   0.91463   0.70584   1.000
    O16     O    0.04415   0.11001   0.68448   1.000
    N17     N    0.60410   0.34386   0.98453   1.000
    O18     O    0.45600   0.31576   0.88988   1.000
    N19     N    0.64592   0.15632   0.48446   1.000
    O20     O    0.79408   0.18438   0.38972   1.000
    N21     N    0.14580   0.84363   0.51558   1.000
    O22     O    0.29396   0.81574   0.61028   1.000
    O23     O    0.97299   0.79419   0.41479   1.000
    O24     O    0.02094   0.40386   0.80834   1.000
    O25     O    0.47922   0.19172   0.59645   1.000
    O26     O    0.77085   0.30841   0.09638   1.000
    O27     O    0.22933   0.09646   0.30834   1.000
loop_
    _geom_bond_atom_site_label_1
    _geom_bond_atom_site_label_2
    _geom_bond_distance
    _geom_bond_site_symmetry_2
    _ccdc_geom_bond_type
    N4     O5        2.48221      .   S
    Zr1    O5        3.58829      .   S
    N4     O6        2.87048      .   S
    Zr2    O6        3.97510      .   S
    N7     O8        2.86799  1_554   S
    Zr0    O8        3.97177      .   S
    N7     O9        2.48413  1_455   S
    Zr2    O9        3.58904      .   S
    N10    O11       2.48107      .   S
    Zr0    O11       3.58627      .   S
    N12    O13       2.48064      .   S
    Zr2    O13       3.58520      .   S
    N14    O15       2.86777  1_545   S
    Zr0    O15       3.97127      .   S
    N14    O16       2.48498  1_655   S
    Zr3    O16       3.59097      .   S
    N17    O18       2.48183      .   S
    Zr3    O18       3.58773      .   S
    N19    O20       2.48194      .   S
    Zr1    O20       3.58745  1_455   S
    N21    O22       2.48154      .   S
    Zr0    O22       3.58668      .   S
    N21    O23       2.87010  1_455   S
    Zr2    O23       3.97487      .   S
    Zr3    O24       3.97191      .   S
    N10    O24       2.84897  1_655   S
    Zr3    O25       3.97260      .   S
    N19    O25       2.84948      .   S
    Zr1    O26       3.97188  1_455   S
    N17    O26       2.84924  1_556   S
    Zr1    O27       3.97167      .   S
    N12    O27       2.84900  1_565   S
