# CIF file generated by openbabel 2.4.90, see http://openbabel.sf.net
data_I
_chemical_name_common ''
_cell_length_a 20.636
_cell_length_b 15.499
_cell_length_c 23.722
_cell_angle_alpha 89.798
_cell_angle_beta 89.984
_cell_angle_gamma 90.015
_space_group_name_H-M_alt 'P 1'
_space_group_name_Hall 'P 1'
loop_
    _symmetry_equiv_pos_as_xyz
    x,y,z
loop_
    _atom_site_label
    _atom_site_type_symbol
    _atom_site_fract_x
    _atom_site_fract_y
    _atom_site_fract_z
    _atom_site_occupancy
    Zn0     Zn   0.80519   0.30355   0.01989   1.000
    Zn1     Zn   0.20534   0.13719   0.98016   1.000
    Zn2     Zn   0.70535   0.13719   0.98016   1.000
    Zn3     Zn   0.44733   0.69600   0.51898   1.000
    Zn4     Zn   0.94734   0.69600   0.51898   1.000
    Zn5     Zn   0.04715   0.86317   0.48107   1.000
    Zn6     Zn   0.54716   0.86317   0.48107   1.000
    Zn7     Zn   0.19733   0.80400   0.48100   1.000
    Zn8     Zn   0.69734   0.80400   0.48103   1.000
    Zn9     Zn   0.29713   0.63683   0.51897   1.000
    Zn10    Zn   0.79714   0.63683   0.51890   1.000
    Zn11    Zn   0.05516   0.19645   0.98014   1.000
    Zn12    Zn   0.55518   0.19645   0.98014   1.000
    Zn13    Zn   0.45536   0.36283   0.01983   1.000
    Zn14    Zn   0.95538   0.36283   0.01980   1.000
    H15     H    0.01440   0.10892   0.82200   1.000
    H16     H    0.51442   0.10892   0.82200   1.000
    H17     H    0.99863   0.05647   0.72412   1.000
    H18     H    0.49865   0.05647   0.72412   1.000
    H19     H    0.21575   0.03780   0.81630   1.000
    H20     H    0.71576   0.03780   0.81630   1.000
    H21     H    0.04409   0.98903   0.63736   1.000
    H22     H    0.54410   0.98904   0.63736   1.000
    H23     H    0.24573   0.92147   0.63021   1.000
    H24     H    0.74575   0.92147   0.63020   1.000
    H25     H    0.26155   0.97353   0.72867   1.000
    H26     H    0.76156   0.97353   0.72867   1.000
    H27     H    0.35046   0.07355   0.98120   1.000
    H28     H    0.85047   0.07355   0.98120   1.000
    H29     H    0.29354   0.25911   0.89249   1.000
    H30     H    0.79355   0.25911   0.89249   1.000
    H31     H    0.29140   0.25559   0.78807   1.000
    Zn32    Zn   0.30518   0.30355   0.01989   1.000
    H33     H    0.79141   0.25559   0.78807   1.000
    H34     H    0.33840   0.13040   0.73666   1.000
    H35     H    0.83841   0.13041   0.73666   1.000
    H36     H    0.38844   0.00914   0.79096   1.000
    H37     H    0.88845   0.00914   0.79096   1.000
    H38     H    0.39137   0.01389   0.89541   1.000
    H39     H    0.89138   0.01389   0.89541   1.000
    H40     H    0.23693   0.89379   0.32365   1.000
    H41     H    0.73694   0.89379   0.32365   1.000
    H42     H    0.25314   0.94528   0.22517   1.000
    H43     H    0.75315   0.94528   0.22517   1.000
    H44     H    0.03556   0.96456   0.31652   1.000
    H45     H    0.53557   0.96456   0.31652   1.000
    H46     H    0.20813   0.01186   0.13772   1.000
    H47     H    0.70814   0.01186   0.13772   1.000
    H48     H    0.00640   0.07870   0.12920   1.000
    H49     H    0.50641   0.07870   0.12921   1.000
    H50     H    0.49012   0.02767   0.22804   1.000
    H51     H    0.99013   0.02767   0.22804   1.000
    H52     H    0.40195   0.92649   0.48054   1.000
    H53     H    0.90196   0.92649   0.48054   1.000
    H54     H    0.45916   0.74197   0.39205   1.000
    H55     H    0.95917   0.74196   0.39205   1.000
    H56     H    0.46098   0.74604   0.28760   1.000
    H57     H    0.96100   0.74603   0.28761   1.000
    H58     H    0.41337   0.87118   0.23603   1.000
    H59     H    0.91338   0.87118   0.23603   1.000
    H60     H    0.36304   0.99185   0.29018   1.000
    H61     H    0.86305   0.99185   0.29018   1.000
    H62     H    0.36047   0.98653   0.39466   1.000
    H63     H    0.86049   0.98653   0.39466   1.000
    H64     H    0.48692   0.60620   0.67630   1.000
    H65     H    0.98694   0.60619   0.67630   1.000
    H66     H    0.50314   0.55474   0.77477   1.000
    H67     H    0.00000   0.55473   0.77477   1.000
    H68     H    0.28554   0.53537   0.68356   1.000
    H69     H    0.78555   0.53538   0.68356   1.000
    H70     H    0.45813   0.48818   0.86226   1.000
    H71     H    0.95814   0.48818   0.86226   1.000
    H72     H    0.25639   0.42128   0.87090   1.000
    H73     H    0.75640   0.42129   0.87091   1.000
    H74     H    0.24009   0.47226   0.77207   1.000
    H75     H    0.74010   0.47226   0.77207   1.000
    H76     H    0.15188   0.57352   0.51951   1.000
    H77     H    0.65189   0.57352   0.51951   1.000
    H78     H    0.20911   0.75809   0.60797   1.000
    H79     H    0.70912   0.75809   0.60797   1.000
    H80     H    0.21096   0.75401   0.71241   1.000
    H81     H    0.71097   0.75401   0.71241   1.000
    H82     H    0.16337   0.62881   0.76400   1.000
    H83     H    0.66338   0.62881   0.76400   1.000
    H84     H    0.11303   0.50811   0.70980   1.000
    H85     H    0.61304   0.50811   0.70988   1.000
    H86     H    0.11044   0.51345   0.60540   1.000
    H87     H    0.61045   0.51345   0.60540   1.000
    H88     H    0.26439   0.39106   0.17787   1.000
    H89     H    0.76441   0.39106   0.17787   1.000
    H90     H    0.24862   0.44350   0.27595   1.000
    H91     H    0.74863   0.44351   0.27595   1.000
    H92     H    0.46576   0.46220   0.18371   1.000
    H93     H    0.96578   0.46219   0.18371   1.000
    H94     H    0.29408   0.51092   0.36271   1.000
    H95     H    0.79409   0.51092   0.36271   1.000
    H96     H    0.49575   0.57852   0.36978   1.000
    H97     H    0.99576   0.57851   0.36979   1.000
    H98     H    0.01155   0.52646   0.27133   1.000
    H99     H    0.51156   0.52647   0.27132   1.000
    C100    C    0.95561   0.55044   0.75484   1.000
    C101    C    0.40305   0.51543   0.78621   1.000
    C102    C    0.90306   0.51542   0.78621   1.000
    C103    C    0.34027   0.51001   0.76010   1.000
    H104    H    0.10051   0.42645   0.01881   1.000
    H105    H    0.60053   0.42645   0.01881   1.000
    H106    H    0.04351   0.24087   0.10753   1.000
    H107    H    0.54352   0.24087   0.10753   1.000
    H108    H    0.04138   0.24435   0.21195   1.000
    H109    H    0.54139   0.24436   0.21195   1.000
    H110    H    0.08840   0.36955   0.26335   1.000
    H111    H    0.58841   0.36955   0.26335   1.000
    H112    H    0.13844   0.49086   0.20904   1.000
    H113    H    0.63845   0.49087   0.20904   1.000
    H114    H    0.14136   0.48614   0.10459   1.000
    H115    H    0.64137   0.48614   0.10459   1.000
    C116    C    0.12439   0.10780   0.88348   1.000
    C117    C    0.62440   0.10780   0.88348   1.000
    C118    C    0.11631   0.07555   0.82467   1.000
    C119    C    0.61632   0.07555   0.82467   1.000
    C120    C    0.05452   0.08147   0.79844   1.000
    C121    C    0.55453   0.08147   0.79844   1.000
    C122    C    0.04608   0.05240   0.74420   1.000
    C123    C    0.54610   0.05240   0.74420   1.000
    C124    C    0.09875   0.01698   0.71340   1.000
    C125    C    0.59877   0.01698   0.71340   1.000
    C126    C    0.16138   0.01172   0.73973   1.000
    C127    C    0.66139   0.01172   0.73973   1.000
    C128    C    0.16858   0.04121   0.79576   1.000
    C129    C    0.66859   0.04121   0.79576   1.000
    C130    C    0.09141   0.98642   0.65768   1.000
    C131    C    0.59142   0.98642   0.65768   1.000
    C132    C    0.15931   0.31446   0.01738   1.000
    C133    C    0.65933   0.31446   0.01738   1.000
    C134    C    0.09605   0.35970   0.03504   1.000
    C135    C    0.59606   0.35970   0.03500   1.000
    C136    C    0.09255   0.36322   0.09921   1.000
    C137    C    0.14348   0.95234   0.62839   1.000
    C138    C    0.64349   0.95234   0.62839   1.000
    C139    C    0.20554   0.94812   0.65426   1.000
    C140    C    0.70555   0.94812   0.65426   1.000
    C141    C    0.21408   0.97692   0.70855   1.000
    C142    C    0.71409   0.97692   0.70855   1.000
    C143    C    0.13395   0.91735   0.57040   1.000
    C144    C    0.63396   0.91735   0.57040   1.000
    C145    C    0.40931   0.18554   0.98263   1.000
    C146    C    0.90932   0.18554   0.98263   1.000
    C147    C    0.34604   0.14030   0.96497   1.000
    C148    C    0.84605   0.14030   0.96497   1.000
    C149    C    0.34256   0.13678   0.90080   1.000
    C150    C    0.84257   0.13678   0.90080   1.000
    C151    C    0.31443   0.20446   0.87020   1.000
    C152    C    0.81445   0.20446   0.87020   1.000
    C153    C    0.31308   0.20217   0.81139   1.000
    C154    C    0.81309   0.20217   0.81139   1.000
    C155    C    0.33974   0.13216   0.78261   1.000
    C156    C    0.83975   0.13216   0.78260   1.000
    C157    C    0.36762   0.06424   0.81299   1.000
    C158    C    0.86763   0.06425   0.81299   1.000
    C159    C    0.36907   0.06663   0.87182   1.000
    C160    C    0.86909   0.06663   0.87182   1.000
    C161    C    0.12686   0.89526   0.38460   1.000
    C162    C    0.62687   0.89526   0.38460   1.000
    C163    C    0.13503   0.92719   0.32556   1.000
    C164    C    0.63505   0.92718   0.32550   1.000
    C165    C    0.19693   0.92104   0.29950   1.000
    C166    C    0.69694   0.92104   0.29950   1.000
    C167    C    0.20560   0.94955   0.24513   1.000
    C168    C    0.70561   0.94954   0.24513   1.000
    C169    C    0.15305   0.98456   0.21379   1.000
    C170    C    0.65306   0.98456   0.21379   1.000
    C171    C    0.09028   0.98994   0.23988   1.000
    C172    C    0.59030   0.98994   0.23988   1.000
    C173    C    0.08284   0.96108   0.29618   1.000
    C174    C    0.58286   0.96107   0.29618   1.000
    C175    C    0.16068   0.01454   0.15782   1.000
    C176    C    0.66069   0.01454   0.15782   1.000
    C177    C    0.10872   0.04814   0.12801   1.000
    C178    C    0.60874   0.04814   0.12801   1.000
    C179    C    0.04651   0.05243   0.15364   1.000
    C180    C    0.54653   0.05243   0.15364   1.000
    C181    C    0.03771   0.02422   0.20816   1.000
    C182    C    0.53772   0.02422   0.20816   1.000
    C183    C    0.11842   0.08263   0.06973   1.000
    C184    C    0.61843   0.08263   0.06973   1.000
    C185    C    0.34301   0.81447   0.48187   1.000
    C186    C    0.84302   0.81447   0.48187   1.000
    C187    C    0.40631   0.85992   0.46400   1.000
    C188    C    0.90633   0.85992   0.46430   1.000
    C189    C    0.40975   0.86395   0.40015   1.000
    C190    C    0.90977   0.86395   0.40015   1.000
    C191    C    0.43803   0.79660   0.36967   1.000
    C192    C    0.93805   0.79659   0.36967   1.000
    C193    C    0.43918   0.79919   0.31085   1.000
    C194    C    0.93920   0.79919   0.31086   1.000
    C195    C    0.41218   0.86919   0.28198   1.000
    C196    C    0.91220   0.86918   0.28198   1.000
    C197    C    0.38414   0.93676   0.31227   1.000
    C198    C    0.88415   0.93676   0.31220   1.000
    C199    C    0.38289   0.93409   0.37111   1.000
    C200    C    0.88291   0.93408   0.37111   1.000
    C201    C    0.37683   0.60474   0.61542   1.000
    C202    C    0.87684   0.60474   0.61543   1.000
    C203    C    0.38502   0.57278   0.67444   1.000
    C204    C    0.88503   0.57278   0.67445   1.000
    C205    C    0.44692   0.57895   0.70040   1.000
    C206    C    0.94693   0.57894   0.70042   1.000
    C207    C    0.45559   0.55045   0.75484   1.000
    C208    C    0.84029   0.51001   0.76017   1.000
    C209    C    0.33283   0.53887   0.70380   1.000
    C210    C    0.83284   0.53887   0.70387   1.000
    C211    C    0.41068   0.48548   0.84219   1.000
    C212    C    0.91069   0.48548   0.84219   1.000
    C213    C    0.35872   0.45187   0.87203   1.000
    C214    C    0.85874   0.45187   0.87200   1.000
    C215    C    0.29651   0.44755   0.84640   1.000
    C216    C    0.79652   0.44755   0.84645   1.000
    C217    C    0.28770   0.47574   0.79192   1.000
    C218    C    0.78771   0.47574   0.79192   1.000
    C219    C    0.36843   0.41740   0.93031   1.000
    C220    C    0.86845   0.41739   0.93031   1.000
    C221    C    0.09299   0.68553   0.51816   1.000
    C222    C    0.59300   0.68553   0.51816   1.000
    C223    C    0.15627   0.64010   0.53574   1.000
    C224    C    0.65628   0.64010   0.53574   1.000
    C225    C    0.15970   0.63607   0.59988   1.000
    C226    C    0.65971   0.63607   0.59980   1.000
    C227    C    0.18799   0.70344   0.63035   1.000
    C228    C    0.68800   0.70344   0.63036   1.000
    C229    C    0.18916   0.70083   0.68916   1.000
    C230    C    0.68917   0.70083   0.68917   1.000
    C231    C    0.16217   0.63081   0.71805   1.000
    C232    C    0.66218   0.63081   0.71806   1.000
    C233    C    0.13412   0.56322   0.68770   1.000
    C234    C    0.63413   0.56322   0.68778   1.000
    C235    C    0.13285   0.56591   0.62894   1.000
    C236    C    0.63286   0.56591   0.62890   1.000
    C237    C    0.37440   0.39221   0.11654   1.000
    C238    C    0.87441   0.39220   0.11650   1.000
    C239    C    0.36631   0.42445   0.17536   1.000
    C240    C    0.86633   0.42444   0.17536   1.000
    C241    C    0.30452   0.41852   0.20161   1.000
    C242    C    0.80453   0.41852   0.20161   1.000
    C243    C    0.29608   0.44758   0.25580   1.000
    C244    C    0.79609   0.44758   0.25580   1.000
    C245    C    0.34875   0.48300   0.28665   1.000
    C246    C    0.84876   0.48300   0.28665   1.000
    C247    C    0.41139   0.48827   0.26029   1.000
    C248    C    0.91140   0.48826   0.26030   1.000
    C249    C    0.41859   0.45879   0.20426   1.000
    C250    C    0.91860   0.45878   0.20426   1.000
    C251    C    0.34141   0.51354   0.34237   1.000
    C252    C    0.84142   0.51354   0.34237   1.000
    C253    C    0.39349   0.54763   0.37164   1.000
    C254    C    0.89350   0.54763   0.37164   1.000
    C255    C    0.45555   0.55186   0.34575   1.000
    C256    C    0.95556   0.55185   0.34575   1.000
    C257    C    0.46409   0.52307   0.29140   1.000
    C258    C    0.96410   0.52306   0.29146   1.000
    C259    C    0.38395   0.58262   0.42960   1.000
    C260    C    0.88397   0.58263   0.42964   1.000
    C261    C    0.59256   0.36322   0.09921   1.000
    C262    C    0.06441   0.29552   0.12981   1.000
    C263    C    0.56442   0.29553   0.12981   1.000
    C264    C    0.06306   0.29780   0.18862   1.000
    C265    C    0.56307   0.29780   0.18862   1.000
    C266    C    0.08973   0.36781   0.21740   1.000
    C267    C    0.58974   0.36781   0.21740   1.000
    C268    C    0.11761   0.43575   0.18701   1.000
    C269    C    0.61762   0.43575   0.18701   1.000
    C270    C    0.11906   0.43338   0.12810   1.000
    C271    C    0.61907   0.43338   0.12810   1.000
    O272    O    0.17763   0.08864   0.90866   1.000
    O273    O    0.67764   0.08864   0.90866   1.000
    O274    O    0.07795   0.15163   0.90369   1.000
    O275    O    0.57796   0.15163   0.90369   1.000
    O276    O    0.07651   0.92166   0.54994   1.000
    O277    O    0.57652   0.92166   0.54994   1.000
    O278    O    0.18330   0.88510   0.54606   1.000
    O279    O    0.68331   0.88510   0.54600   1.000
    O280    O    0.29209   0.18178   0.99018   1.000
    O281    O    0.79210   0.18178   0.99018   1.000
    O282    O    0.40275   0.25171   0.01459   1.000
    O283    O    0.90276   0.25171   0.01459   1.000
    O284    O    0.46201   0.15552   0.96530   1.000
    O285    O    0.96202   0.15552   0.96530   1.000
    O286    O    0.07369   0.91462   0.40978   1.000
    O287    O    0.57371   0.91462   0.40978   1.000
    O288    O    0.17314   0.85124   0.40504   1.000
    O289    O    0.67315   0.85123   0.40504   1.000
    O290    O    0.17577   0.07795   0.04914   1.000
    O291    O    0.67578   0.07795   0.04914   1.000
    O292    O    0.06914   0.11504   0.04527   1.000
    O293    O    0.56915   0.11504   0.04527   1.000
    O294    O    0.46021   0.81803   0.48946   1.000
    O295    O    0.96022   0.81803   0.48940   1.000
    O296    O    0.34972   0.74783   0.51366   1.000
    O297    O    0.84973   0.74782   0.51366   1.000
    O298    O    0.29021   0.84453   0.46460   1.000
    O299    O    0.79023   0.84453   0.46462   1.000
    O300    O    0.32366   0.58538   0.59026   1.000
    O301    O    0.82367   0.58538   0.59026   1.000
    O302    O    0.42312   0.64879   0.59490   1.000
    O303    O    0.92313   0.64878   0.59490   1.000
    O304    O    0.42579   0.42206   0.95086   1.000
    O305    O    0.92580   0.42206   0.95086   1.000
    O306    O    0.31914   0.38501   0.95481   1.000
    O307    O    0.81916   0.38501   0.95482   1.000
    O308    O    0.21020   0.68197   0.51056   1.000
    O309    O    0.71021   0.68197   0.51056   1.000
    O310    O    0.09973   0.75217   0.48635   1.000
    O311    O    0.59974   0.75217   0.48635   1.000
    O312    O    0.04017   0.65546   0.53541   1.000
    O313    O    0.54018   0.65546   0.53541   1.000
    O314    O    0.42765   0.41138   0.09135   1.000
    O315    O    0.92766   0.41138   0.09135   1.000
    O316    O    0.32795   0.34838   0.09633   1.000
    O317    O    0.82796   0.34838   0.09633   1.000
    O318    O    0.32652   0.57829   0.45013   1.000
    O319    O    0.82653   0.57828   0.45013   1.000
    O320    O    0.43332   0.61491   0.45394   1.000
    O321    O    0.93333   0.61491   0.45390   1.000
    O322    O    0.04210   0.31823   0.00983   1.000
    O323    O    0.54211   0.31823   0.00983   1.000
    O324    O    0.15274   0.24830   0.98541   1.000
    O325    O    0.65275   0.24830   0.98541   1.000
    O326    O    0.21202   0.34447   0.03460   1.000
    O327    O    0.71203   0.34447   0.03460   1.000
loop_
    _geom_bond_atom_site_label_1
    _geom_bond_atom_site_label_2
    _geom_bond_distance
    _geom_bond_site_symmetry_2
    _ccdc_geom_bond_type
    O323   Zn13      1.93394      .   S
    O323   C135      1.41850      .   S
    O322   Zn14      1.93337  1_455   S
    O322   C134      1.41891      .   S
    O283   Zn14      2.03988      .   S
    O283   C146      1.28459  1_554   S
    O282   Zn13      2.03992      .   S
    O282   C145      1.28459  1_554   S
    C133   O327      1.25197      .   S
    C133   C135      1.54037      .   S
    C133   O325      1.28472  1_554   S
    C132   O326      1.25199      .   S
    C132   C134      1.54062      .   S
    C132   O324      1.28471  1_554   S
    H105   C135      1.10608      .   S
    H104   C134      1.10640      .   S
    Zn14   O315      1.94494      .   S
    Zn14   O305      1.96973  1_554   S
    Zn13   O314      1.94429      .   S
    Zn13   O304      1.97030  1_554   S
    Zn0    O327      2.05476      .   S
    Zn0    O317      2.00021      .   S
    Zn0    O307      2.01145  1_554   S
    Zn32   O326      2.05474      .   S
    Zn32   O316      2.00020      .   S
    Zn32   O306      2.01156  1_554   S
    C135   C261      1.52605      .   S
    C134   C136      1.52511      .   S
    O293   C184      1.27348      .   S
    O293   Zn12      2.01215  1_554   S
    O292   C183      1.27346      .   S
    O292   Zn11      2.01219  1_554   S
    O291   C184      1.28233      .   S
    O291   Zn2       1.97015  1_554   S
    O290   C183      1.28233      .   S
    O290   Zn1       1.97015  1_554   S
    C183   C177      1.49391      .   S
    C184   C178      1.49391      .   S
    O315   C238      1.28454      .   S
    O314   C237      1.28500      .   S
    O316   C237      1.26982      .   S
    O317   C238      1.26943      .   S
    C261   C271      1.39882      .   S
    C261   C263      1.39966      .   S
    C136   C270      1.39882      .   S
    C136   C262      1.39965      .   S
    H115   C271      1.08984      .   S
    H114   C270      1.08984      .   S
    H106   C262      1.08901      .   S
    H107   C263      1.08902      .   S
    C238   C240      1.49395      .   S
    C237   C239      1.49307      .   S
    C177   C179      1.42200      .   S
    C177   C175      1.38521      .   S
    C178   C180      1.42198      .   S
    C178   C176      1.38522      .   S
    C270   C268      1.39839      .   S
    C271   C269      1.39839      .   S
    H48    C179      1.08895      .   S
    H49    C180      1.08883      .   S
    C263   C265      1.39593      .   S
    C262   C264      1.39593      .   S
    H47    C176      1.08984      .   S
    H46    C175      1.08986      .   S
    C179   C181      1.37576      .   S
    C180   C182      1.37577      .   S
    C176   C170      1.41386  1_545   S
    C175   C169      1.41385  1_545   S
    C239   C241      1.42183      .   S
    C239   C249      1.38552      .   S
    C240   C242      1.42187      .   S
    C240   C250      1.38552      .   S
    H88    C241      1.08881      .   S
    H89    C242      1.08881      .   S
    H92    C249      1.08977      .   S
    H93    C250      1.08978      .   S
    C268   H112      1.09117      .   S
    C268   C266      1.39770      .   S
    C269   H113      1.09117      .   S
    C269   C267      1.39771      .   S
    C264   H108      1.09036      .   S
    C264   C266      1.39707      .   S
    C265   H109      1.09036      .   S
    C265   C267      1.39707      .   S
    C241   C243      1.37467      .   S
    C242   C244      1.37463      .   S
    C250   C248      1.41501      .   S
    C249   C247      1.41481      .   S
    C181   H51       1.09057  1_455   S
    C181   C171      1.42243  1_545   S
    C182   H50       1.09100      .   S
    C182   C172      1.42245  1_545   S
    C170   C172      1.43790      .   S
    C170   C168      1.42164      .   S
    C169   C171      1.43792      .   S
    C169   C167      1.42163      .   S
    C267   H111      1.09079      .   S
    C266   H110      1.09079      .   S
    H43    C168      1.09133      .   S
    H42    C167      1.09133      .   S
    H59    C196      1.09062      .   S
    H58    C195      1.09062      .   S
    C172   C174      1.41530      .   S
    C171   C173      1.41529      .   S
    C167   C165      1.37349      .   S
    C168   C166      1.37350      .   S
    C243   H90       1.09138      .   S
    C243   C245      1.42178      .   S
    C244   H91       1.09140      .   S
    C244   C246      1.42179      .   S
    C247   C245      1.43785      .   S
    C247   C257      1.42171      .   S
    C248   C246      1.43776      .   S
    C248   C258      1.42233      .   S
    H99    C257      1.09044      .   S
    H98    C258      1.09053  1_455   S
    C195   C193      1.39703      .   S
    C195   C197      1.39768      .   S
    C196   C194      1.39713      .   S
    C196   C198      1.39683      .   S
    C245   C251      1.41367      .   S
    C246   C252      1.41366      .   S
    H56    C193      1.09027      .   S
    H57    C194      1.09027      .   S
    H61    C198      1.09022      .   S
    H60    C197      1.09100      .   S
    C257   C255      1.37710      .   S
    C258   C256      1.37576      .   S
    C173   H44       1.08992      .   S
    C173   C163      1.38551      .   S
    C174   H45       1.08990      .   S
    C174   C164      1.38480      .   S
    C165   H40       1.08930      .   S
    C165   C163      1.42221      .   S
    C166   H41       1.08930      .   S
    C166   C164      1.42159      .   S
    C193   C191      1.39596      .   S
    C194   C192      1.39573      .   S
    C198   C200      1.39816      .   S
    C197   C199      1.39650      .   S
    C164   C162      1.49458      .   S
    C163   C161      1.49325      .   S
    C252   H95       1.08987      .   S
    C252   C254      1.38528      .   S
    C251   H94       1.08984      .   S
    C251   C253      1.38526      .   S
    C255   H96       1.08880      .   S
    C255   C253      1.42167      .   S
    C256   H97       1.08891      .   S
    C256   C254      1.42170      .   S
    C192   H55       1.08900      .   S
    C192   C190      1.39951      .   S
    C191   H54       1.08901      .   S
    C191   C189      1.39949      .   S
    C200   H63       1.09088      .   S
    C200   C190      1.39950      .   S
    C199   H62       1.09087      .   S
    C199   C189      1.39951      .   S
    C254   C260      1.49367      .   S
    C253   C259      1.49278      .   S
    C162   O289      1.26925      .   S
    C162   O287      1.28515      .   S
    C161   O288      1.26922      .   S
    C161   O286      1.28517      .   S
    C189   C187      1.51736      .   S
    C190   C188      1.52446      .   S
    O288   Zn7       2.00587      .   S
    O289   Zn8       2.00647      .   S
    O287   Zn6       1.94569      .   S
    O286   Zn5       1.94566      .   S
    C259   O318      1.28291      .   S
    C259   O320      1.27413      .   S
    C260   O319      1.28249      .   S
    C260   O321      1.27327      .   S
    O319   Zn10      1.96542      .   S
    O318   Zn9       1.96673      .   S
    O321   Zn4       2.01508      .   S
    O320   Zn3       2.01431      .   S
    C187   H52       1.10883      .   S
    C187   C185      1.54258      .   S
    C187   O294      1.42172      .   S
    C188   H53       1.10631      .   S
    C188   C186      1.54064      .   S
    C188   O295      1.41811      .   S
    O298   Zn7       2.05355      .   S
    O298   C185      1.25343      .   S
    O299   Zn8       2.05362      .   S
    O299   C186      1.25327      .   S
    Zn7    O278      2.01474      .   S
    Zn8    O279      2.01310      .   S
    Zn6    O311      2.03776      .   S
    Zn6    O294      1.93557      .   S
    Zn6    O277      1.96693      .   S
    Zn5    O310      2.03775      .   S
    Zn5    O295      1.93496  1_455   S
    Zn5    O276      1.96695      .   S
    C185   O296      1.28434      .   S
    C186   O297      1.28437      .   S
    O310   C221      1.28450      .   S
    O311   C222      1.28448      .   S
    O308   Zn9       1.93577      .   S
    O308   C223      1.41880      .   S
    O309   Zn10      1.93562      .   S
    O309   C224      1.41882      .   S
    O296   Zn9       2.03734      .   S
    O297   Zn10      2.03723      .   S
    C221   O312      1.25329      .   S
    C221   C223      1.54076      .   S
    C222   O313      1.25331      .   S
    C222   C224      1.54075      .   S
    Zn10   O301      1.94741      .   S
    Zn9    O300      1.94597      .   S
    Zn4    O312      2.05319  1_655   S
    Zn4    O303      2.00467      .   S
    Zn3    O313      2.05364      .   S
    Zn3    O302      2.00464      .   S
    H76    C223      1.10634      .   S
    H77    C224      1.10634      .   S
    C223   C225      1.52425      .   S
    C224   C226      1.52235      .   S
    O279   C144      1.27447      .   S
    O278   C143      1.27381      .   S
    O277   C144      1.28255      .   S
    O276   C143      1.28255      .   S
    C144   C138      1.49349      .   S
    C143   C137      1.49349      .   S
    O301   C202      1.28529      .   S
    O300   C201      1.28518      .   S
    O302   C201      1.26985      .   S
    O303   C202      1.26992      .   S
    C226   C236      1.40001      .   S
    C226   C228      1.40065      .   S
    C225   C235      1.39954      .   S
    C225   C227      1.39955      .   S
    H87    C236      1.09040      .   S
    H86    C235      1.09088      .   S
    H79    C228      1.08903      .   S
    H78    C227      1.08891      .   S
    C201   C203      1.49309      .   S
    C202   C204      1.49311      .   S
    C137   C139      1.42170      .   S
    C137   C130      1.38529      .   S
    C138   C140      1.42169      .   S
    C138   C131      1.38528      .   S
    C236   C234      1.39748      .   S
    C235   C233      1.39463      .   S
    H24    C140      1.08900      .   S
    H23    C139      1.08886      .   S
    C227   C229      1.39575      .   S
    C228   C230      1.39575      .   S
    H21    C130      1.08983      .   S
    H22    C131      1.08981      .   S
    C140   C142      1.37587      .   S
    C139   C141      1.37586      .   S
    C130   C124      1.41381  1_565   S
    C131   C125      1.41382  1_565   S
    C203   C205      1.42163      .   S
    C203   C209      1.38483      .   S
    C204   C206      1.42175      .   S
    C204   C210      1.38555      .   S
    H65    C206      1.08865      .   S
    H64    C205      1.08839      .   S
    H69    C210      1.08988      .   S
    H68    C209      1.08914      .   S
    C233   H84       1.09102      .   S
    C233   C231      1.39861      .   S
    C234   H85       1.09102      .   S
    C234   C232      1.39776      .   S
    C229   H80       1.09039      .   S
    C229   C231      1.39710      .   S
    C230   H81       1.09027      .   S
    C230   C232      1.39710      .   S
    C205   C207      1.37513      .   S
    C206   C100      1.37468      .   S
    C209   C103      1.41535      .   S
    C210   C208      1.41535      .   S
    C141   H25       1.09104      .   S
    C141   C126      1.42237  1_565   S
    C142   H26       1.09102      .   S
    C142   C127      1.42238  1_565   S
    C125   C127      1.43773      .   S
    C125   C123      1.42102      .   S
    C124   C126      1.43773      .   S
    C124   C122      1.42101      .   S
    C231   H82       1.09065      .   S
    C232   H83       1.09041      .   S
    H18    C123      1.09078      .   S
    H17    C122      1.09079  1_655   S
    H35    C156      1.09058      .   S
    H34    C155      1.09082      .   S
    C127   C129      1.41491      .   S
    C126   C128      1.41490      .   S
    C122   C120      1.37588      .   S
    C123   C121      1.37589      .   S
    C100   H67       1.03320  1_655   S
    C100   C102      1.42153      .   S
    C207   H66       1.09130      .   S
    C207   C101      1.42154      .   S
    C103   C101      1.43852      .   S
    C103   C217      1.42321      .   S
    C208   C102      1.43782      .   S
    C208   C218      1.42232      .   S
    H75    C218      1.09101      .   S
    H74    C217      1.09102      .   S
    C156   C154      1.39711      .   S
    C156   C158      1.39777      .   S
    C155   C153      1.39701      .   S
    C155   C157      1.39765      .   S
    C102   C212      1.41404      .   S
    C101   C211      1.41405      .   S
    H33    C154      1.09030      .   S
    H31    C153      1.09030      .   S
    H36    C157      1.09112      .   S
    H37    C158      1.09111      .   S
    C217   C215      1.37490      .   S
    C218   C216      1.37600      .   S
    C129   H20       1.08976      .   S
    C129   C119      1.38549      .   S
    C128   H19       1.08978      .   S
    C128   C118      1.38548      .   S
    C121   H16       1.08642      .   S
    C121   C119      1.42184      .   S
    C120   H15       1.08642      .   S
    C120   C118      1.42183      .   S
    C154   C152      1.39596      .   S
    C153   C151      1.39596      .   S
    C157   C159      1.39652      .   S
    C158   C160      1.39652      .   S
    C118   C116      1.49296      .   S
    C119   C117      1.49296      .   S
    C211   H70       1.08982      .   S
    C211   C213      1.38507      .   S
    C212   H71       1.08984      .   S
    C212   C214      1.38470      .   S
    C215   H72       1.08940      .   S
    C215   C213      1.42241      .   S
    C216   H73       1.08890      .   S
    C216   C214      1.42161      .   S
    C152   H30       1.08907      .   S
    C152   C150      1.39975      .   S
    C151   H29       1.08906      .   S
    C151   C149      1.39975      .   S
    C160   H39       1.09087      .   S
    C160   C150      1.39983      .   S
    C159   H38       1.09087      .   S
    C159   C149      1.39981      .   S
    C214   C220      1.49466      .   S
    C213   C219      1.49399      .   S
    C116   O274      1.26979      .   S
    C116   O272      1.28499      .   S
    C117   O275      1.26979      .   S
    C117   O273      1.28502      .   S
    C149   C147      1.52512      .   S
    C150   C148      1.52512      .   S
    O275   Zn12      2.00027      .   S
    O274   Zn11      2.00028      .   S
    O272   Zn1       1.94404      .   S
    O273   Zn2       1.94403      .   S
    C220   O305      1.28234      .   S
    C220   O307      1.27350      .   S
    C219   O304      1.28235      .   S
    C219   O306      1.27344      .   S
    C148   H28       1.10641      .   S
    C148   C146      1.54057      .   S
    C148   O281      1.41889      .   S
    C147   H27       1.10640      .   S
    C147   C145      1.54058      .   S
    C147   O280      1.41889      .   S
    O285   Zn11      2.05474  1_655   S
    O285   C146      1.25293      .   S
    O284   Zn12      2.05520      .   S
    O284   C145      1.25293      .   S
    Zn2    O325      2.04010      .   S
    Zn2    O281      1.93384      .   S
    Zn1    O324      2.04010      .   S
    Zn1    O280      1.93384      .   S
    O280   Zn32      2.03484  1_556   S
    O281   Zn0       2.03484  1_556   S
    O282   Zn32      2.17184      .   S
    O283   Zn0       2.17184      .   S
    O294   Zn3       2.03191      .   S
    O295   Zn4       2.03242      .   S
    O296   Zn3       2.17218      .   S
    O297   Zn4       2.17218      .   S
    O308   Zn7       2.03236      .   S
    O309   Zn8       2.03209      .   S
    O310   Zn7       2.17173      .   S
    O311   Zn8       2.17169      .   S
    O322   Zn11      2.03492  1_554   S
    O323   Zn12      2.03492  1_554   S
    O324   Zn11      2.17159      .   S
    O325   Zn12      2.17159      .   S
