# CIF file generated by openbabel 2.4.90, see http://openbabel.sf.net
data_I
_chemical_name_common ''
_cell_length_a 20.636
_cell_length_b 15.499
_cell_length_c 23.722
_cell_angle_alpha 89.798
_cell_angle_beta 89.984
_cell_angle_gamma 90.015
_space_group_name_H-M_alt 'P 1'
_space_group_name_Hall 'P 1'
loop_
    _symmetry_equiv_pos_as_xyz
    x,y,z
loop_
    _atom_site_label
    _atom_site_type_symbol
    _atom_site_fract_x
    _atom_site_fract_y
    _atom_site_fract_z
    _atom_site_occupancy
    Zn0     Zn   0.80519   0.30355   0.01989   1.000
    Zn1     Zn   0.20534   0.13719   0.98016   1.000
    Zn2     Zn   0.70535   0.13719   0.98016   1.000
    Zn3     Zn   0.44733   0.69600   0.51898   1.000
    Zn4     Zn   0.94734   0.69600   0.51898   1.000
    Zn5     Zn   0.04715   0.86317   0.48107   1.000
    Zn6     Zn   0.54716   0.86317   0.48107   1.000
    Zn7     Zn   0.19733   0.80400   0.48100   1.000
    Zn8     Zn   0.69734   0.80400   0.48103   1.000
    Zn9     Zn   0.29713   0.63683   0.51897   1.000
    Zn10    Zn   0.79714   0.63683   0.51890   1.000
    Zn11    Zn   0.05516   0.19645   0.98014   1.000
    Zn12    Zn   0.55518   0.19645   0.98014   1.000
    Zn13    Zn   0.45536   0.36283   0.01983   1.000
    Zn14    Zn   0.95538   0.36283   0.01980   1.000
    Zn15    Zn   0.30518   0.30355   0.01989   1.000
    C16     C    0.12439   0.10780   0.88348   1.000
    C17     C    0.62440   0.10780   0.88348   1.000
    C18     C    0.15931   0.31446   0.01738   1.000
    C19     C    0.65933   0.31446   0.01738   1.000
    C20     C    0.13395   0.91735   0.57040   1.000
    C21     C    0.63396   0.91735   0.57040   1.000
    C22     C    0.40931   0.18554   0.98263   1.000
    C23     C    0.90932   0.18554   0.98263   1.000
    C24     C    0.12686   0.89526   0.38460   1.000
    C25     C    0.62687   0.89526   0.38460   1.000
    C26     C    0.11842   0.08263   0.06973   1.000
    C27     C    0.61843   0.08263   0.06973   1.000
    C28     C    0.34301   0.81447   0.48187   1.000
    C29     C    0.84302   0.81447   0.48187   1.000
    C30     C    0.37683   0.60474   0.61542   1.000
    C31     C    0.87684   0.60474   0.61543   1.000
    C32     C    0.36843   0.41740   0.93031   1.000
    C33     C    0.86845   0.41739   0.93031   1.000
    C34     C    0.09299   0.68553   0.51816   1.000
    C35     C    0.59300   0.68553   0.51816   1.000
    C36     C    0.37440   0.39221   0.11654   1.000
    C37     C    0.87441   0.39220   0.11650   1.000
    C38     C    0.38395   0.58262   0.42960   1.000
    C39     C    0.88397   0.58263   0.42964   1.000
    O40     O    0.17763   0.08864   0.90866   1.000
    O41     O    0.67764   0.08864   0.90866   1.000
    O42     O    0.07795   0.15163   0.90369   1.000
    O43     O    0.57796   0.15163   0.90369   1.000
    O44     O    0.07651   0.92166   0.54994   1.000
    O45     O    0.57652   0.92166   0.54994   1.000
    O46     O    0.18330   0.88510   0.54606   1.000
    O47     O    0.68331   0.88510   0.54600   1.000
    O48     O    0.40275   0.25171   0.01459   1.000
    O49     O    0.90276   0.25171   0.01459   1.000
    O50     O    0.46201   0.15552   0.96530   1.000
    O51     O    0.96202   0.15552   0.96530   1.000
    O52     O    0.07369   0.91462   0.40978   1.000
    O53     O    0.57371   0.91462   0.40978   1.000
    O54     O    0.17314   0.85124   0.40504   1.000
    O55     O    0.67315   0.85123   0.40504   1.000
    O56     O    0.17577   0.07795   0.04914   1.000
    O57     O    0.67578   0.07795   0.04914   1.000
    O58     O    0.06914   0.11504   0.04527   1.000
    O59     O    0.56915   0.11504   0.04527   1.000
    O60     O    0.34972   0.74783   0.51366   1.000
    O61     O    0.84973   0.74782   0.51366   1.000
    O62     O    0.29021   0.84453   0.46460   1.000
    O63     O    0.79023   0.84453   0.46462   1.000
    O64     O    0.32366   0.58538   0.59026   1.000
    O65     O    0.82367   0.58538   0.59026   1.000
    O66     O    0.42312   0.64879   0.59490   1.000
    O67     O    0.92313   0.64878   0.59490   1.000
    O68     O    0.42579   0.42206   0.95086   1.000
    O69     O    0.92580   0.42206   0.95086   1.000
    O70     O    0.31914   0.38501   0.95481   1.000
    O71     O    0.81916   0.38501   0.95482   1.000
    O72     O    0.09973   0.75217   0.48635   1.000
    O73     O    0.59974   0.75217   0.48635   1.000
    O74     O    0.04017   0.65546   0.53541   1.000
    O75     O    0.54018   0.65546   0.53541   1.000
    O76     O    0.42765   0.41138   0.09135   1.000
    O77     O    0.92766   0.41138   0.09135   1.000
    O78     O    0.32795   0.34838   0.09633   1.000
    O79     O    0.82796   0.34838   0.09633   1.000
    O80     O    0.32652   0.57829   0.45013   1.000
    O81     O    0.82653   0.57828   0.45013   1.000
    O82     O    0.43332   0.61491   0.45394   1.000
    O83     O    0.93333   0.61491   0.45390   1.000
    O84     O    0.15274   0.24830   0.98541   1.000
    O85     O    0.65275   0.24830   0.98541   1.000
    O86     O    0.21202   0.34447   0.03460   1.000
    O87     O    0.71203   0.34447   0.03460   1.000
loop_
    _geom_bond_atom_site_label_1
    _geom_bond_atom_site_label_2
    _geom_bond_distance
    _geom_bond_site_symmetry_2
    _ccdc_geom_bond_type
    O49    Zn14      2.03988      .   S
    O49    C23       1.28459  1_554   S
    O48    Zn13      2.03992      .   S
    O48    C22       1.28459  1_554   S
    C19    O87       1.25197      .   S
    C19    O85       1.28472  1_554   S
    C18    O86       1.25199      .   S
    C18    O84       1.28471  1_554   S
    Zn14   O77       1.94494      .   S
    Zn14   O69       1.96973  1_554   S
    Zn13   O76       1.94429      .   S
    Zn13   O68       1.97030  1_554   S
    Zn0    O87       2.05476      .   S
    Zn0    O79       2.00021      .   S
    Zn0    O71       2.01145  1_554   S
    Zn15   O86       2.05474      .   S
    Zn15   O78       2.00020      .   S
    Zn15   O70       2.01156  1_554   S
    O59    C27       1.27348      .   S
    O59    Zn12      2.01215  1_554   S
    O58    C26       1.27346      .   S
    O58    Zn11      2.01219  1_554   S
    O57    C27       1.28233      .   S
    O57    Zn2       1.97015  1_554   S
    O56    C26       1.28233      .   S
    O56    Zn1       1.97015  1_554   S
    O77    C37       1.28454      .   S
    O76    C36       1.28500      .   S
    O78    C36       1.26982      .   S
    O79    C37       1.26943      .   S
    C25    O55       1.26925      .   S
    C25    O53       1.28515      .   S
    C24    O54       1.26922      .   S
    C24    O52       1.28517      .   S
    O54    Zn7       2.00587      .   S
    O55    Zn8       2.00647      .   S
    O53    Zn6       1.94569      .   S
    O52    Zn5       1.94566      .   S
    C38    O80       1.28291      .   S
    C38    O82       1.27413      .   S
    C39    O81       1.28249      .   S
    C39    O83       1.27327      .   S
    O81    Zn10      1.96542      .   S
    O80    Zn9       1.96673      .   S
    O83    Zn4       2.01508      .   S
    O82    Zn3       2.01431      .   S
    O62    Zn7       2.05355      .   S
    O62    C28       1.25343      .   S
    O63    Zn8       2.05362      .   S
    O63    C29       1.25327      .   S
    Zn7    O46       2.01474      .   S
    Zn8    O47       2.01310      .   S
    Zn6    O73       2.03776      .   S
    Zn6    O45       1.96693      .   S
    Zn5    O72       2.03775      .   S
    Zn5    O44       1.96695      .   S
    C28    O60       1.28434      .   S
    C29    O61       1.28437      .   S
    O72    C34       1.28450      .   S
    O73    C35       1.28448      .   S
    O60    Zn9       2.03734      .   S
    O61    Zn10      2.03723      .   S
    C34    O74       1.25329      .   S
    C35    O75       1.25331      .   S
    Zn10   O65       1.94741      .   S
    Zn9    O64       1.94597      .   S
    Zn4    O74       2.05319  1_655   S
    Zn4    O67       2.00467      .   S
    Zn3    O75       2.05364      .   S
    Zn3    O66       2.00464      .   S
    O47    C21       1.27447      .   S
    O46    C20       1.27381      .   S
    O45    C21       1.28255      .   S
    O44    C20       1.28255      .   S
    O65    C31       1.28529      .   S
    O64    C30       1.28518      .   S
    O66    C30       1.26985      .   S
    O67    C31       1.26992      .   S
    C16    O42       1.26979      .   S
    C16    O40       1.28499      .   S
    C17    O43       1.26979      .   S
    C17    O41       1.28502      .   S
    O43    Zn12      2.00027      .   S
    O42    Zn11      2.00028      .   S
    O40    Zn1       1.94404      .   S
    O41    Zn2       1.94403      .   S
    C33    O69       1.28234      .   S
    C33    O71       1.27350      .   S
    C32    O68       1.28235      .   S
    C32    O70       1.27344      .   S
    O51    Zn11      2.05474  1_655   S
    O51    C23       1.25293      .   S
    O50    Zn12      2.05520      .   S
    O50    C22       1.25293      .   S
    Zn2    O85       2.04010      .   S
    Zn1    O84       2.04010      .   S
    O48    Zn15      2.17184      .   S
    O49    Zn0       2.17184      .   S
    O60    Zn3       2.17218      .   S
    O61    Zn4       2.17218      .   S
    O72    Zn7       2.17173      .   S
    O73    Zn8       2.17169      .   S
    O84    Zn11      2.17159      .   S
    O85    Zn12      2.17159      .   S
