# CIF file generated by openbabel 2.4.90, see http://openbabel.sf.net
data_I
_chemical_name_common ''
_cell_length_a 20.636
_cell_length_b 15.499
_cell_length_c 23.722
_cell_angle_alpha 89.798
_cell_angle_beta 89.984
_cell_angle_gamma 90.015
_space_group_name_H-M_alt 'P 1'
_space_group_name_Hall 'P 1'
loop_
    _symmetry_equiv_pos_as_xyz
    x,y,z
loop_
    _atom_site_label
    _atom_site_type_symbol
    _atom_site_fract_x
    _atom_site_fract_y
    _atom_site_fract_z
    _atom_site_occupancy
    Zr0     Zr   0.30518   0.30355   0.01989   1.000
    Zr1     Zr   0.80519   0.30355   0.01989   1.000
    Zr2     Zr   0.20534   0.13719   0.98016   1.000
    Zr3     Zr   0.70535   0.13719   0.98016   1.000
    Zr4     Zr   0.44733   0.69600   0.51898   1.000
    Zr5     Zr   0.94734   0.69600   0.51898   1.000
    Zr6     Zr   0.04715   0.86317   0.48107   1.000
    Zr7     Zr   0.54716   0.86317   0.48107   1.000
    Zr8     Zr   0.19733   0.80400   0.48100   1.000
    Zr9     Zr   0.69734   0.80400   0.48103   1.000
    Zr10    Zr   0.29713   0.63683   0.51897   1.000
    Zr11    Zr   0.79714   0.63683   0.51890   1.000
    Zr12    Zr   0.05516   0.19645   0.98014   1.000
    Zr13    Zr   0.55518   0.19645   0.98014   1.000
    Zr14    Zr   0.45536   0.36283   0.01983   1.000
    Zr15    Zr   0.95538   0.36283   0.01980   1.000
    N16     N    0.63003   0.01440   0.72648   1.000
    N17     N    0.88003   0.48558   0.27354   1.000
    N18     N    0.62174   0.98716   0.22675   1.000
    N19     N    0.58845   0.36641   0.13645   1.000
    O20     O    0.54359   0.35347   0.07564   1.000
    O21     O    0.56855   0.31187   0.06572   1.000
    N22     N    0.16366   0.63274   0.63710   1.000
    O23     O    0.20866   0.64607   0.57593   1.000
    O24     O    0.18371   0.68786   0.56644   1.000
    N25     N    0.87154   0.51282   0.77327   1.000
    N26     N    0.12173   0.98716   0.22675   1.000
    N27     N    0.66367   0.63274   0.63711   1.000
    O28     O    0.70867   0.64607   0.57592   1.000
    O29     O    0.68372   0.68786   0.56645   1.000
    N30     N    0.37172   0.51282   0.77326   1.000
    N31     N    0.91371   0.86727   0.36291   1.000
    O32     O    0.95870   0.85394   0.42407   1.000
    O33     O    0.93374   0.81214   0.43355   1.000
    N34     N    0.08844   0.36640   0.13645   1.000
    O35     O    0.04359   0.35347   0.07563   1.000
    O36     O    0.06854   0.31187   0.06572   1.000
    N37     N    0.41369   0.86727   0.36290   1.000
    O38     O    0.45869   0.85394   0.42408   1.000
    O39     O    0.43373   0.81214   0.43356   1.000
    N40     N    0.38002   0.48559   0.27353   1.000
    N41     N    0.83846   0.13359   0.86355   1.000
    O42     O    0.79359   0.14654   0.92436   1.000
    O43     O    0.81855   0.18813   0.93429   1.000
    N44     N    0.33845   0.13359   0.86355   1.000
    O45     O    0.29358   0.14654   0.92436   1.000
    O46     O    0.31854   0.18813   0.93429   1.000
    N47     N    0.13002   0.01440   0.72648   1.000
    C48     C    0.87455   0.61297   0.60020   1.000
    O49     O    0.90489   0.64268   0.57857   1.000
    O50     O    0.87539   0.58188   0.65465   1.000
    O51     O    0.84248   0.61203   0.57739   1.000
    C52     C    0.38126   0.59194   0.44456   1.000
    O53     O    0.41079   0.62370   0.46551   1.000
    O54     O    0.38282   0.55865   0.39082   1.000
    O55     O    0.34654   0.59975   0.46455   1.000
    C56     C    0.88128   0.59194   0.44456   1.000
    O57     O    0.91081   0.62370   0.46550   1.000
    O58     O    0.88283   0.55865   0.39082   1.000
    O59     O    0.84656   0.59975   0.46454   1.000
    C60     C    0.82766   0.80228   0.48672   1.000
    O61     O    0.86093   0.82725   0.45236   1.000
    O62     O    0.78572   0.81327   0.47977   1.000
    O63     O    0.82555   0.74730   0.50150   1.000
    O64     O    0.86310   0.76209   0.50152   1.000
    C65     C    0.62458   0.88704   0.39981   1.000
    O66     O    0.65491   0.85733   0.42142   1.000
    O67     O    0.62546   0.91811   0.34535   1.000
    O68     O    0.59251   0.88796   0.42262   1.000
    C69     C    0.13125   0.90804   0.55547   1.000
    O70     O    0.16079   0.87629   0.53450   1.000
    O71     O    0.13281   0.94133   0.60920   1.000
    O72     O    0.09654   0.90023   0.53549   1.000
    C73     C    0.57764   0.69772   0.51331   1.000
    O74     O    0.61090   0.67275   0.54767   1.000
    O75     O    0.57554   0.75270   0.49851   1.000
    O76     O    0.61309   0.73790   0.49850   1.000
    O77     O    0.53570   0.68673   0.52025   1.000
    C78     C    0.63127   0.90804   0.55545   1.000
    O79     O    0.63282   0.94133   0.60919   1.000
    O80     O    0.66080   0.87629   0.53448   1.000
    O81     O    0.59655   0.90023   0.53548   1.000
    C82     C    0.32765   0.80228   0.48671   1.000
    O83     O    0.36091   0.82726   0.45231   1.000
    O84     O    0.32554   0.74730   0.50151   1.000
    O85     O    0.36309   0.76210   0.50152   1.000
    O86     O    0.28571   0.81327   0.47976   1.000
    C87     C    0.37453   0.61297   0.60019   1.000
    O88     O    0.37543   0.58188   0.65464   1.000
    O89     O    0.34246   0.61204   0.57740   1.000
    O90     O    0.40488   0.64268   0.57857   1.000
    C91     C    0.12456   0.88704   0.39981   1.000
    O92     O    0.12545   0.91811   0.34536   1.000
    O93     O    0.09249   0.88797   0.42262   1.000
    O94     O    0.15490   0.85733   0.42141   1.000
    C95     C    0.07763   0.69772   0.51331   1.000
    O96     O    0.03569   0.68673   0.52025   1.000
    O97     O    0.11089   0.67275   0.54767   1.000
    O98     O    0.07553   0.75270   0.49851   1.000
    O99     O    0.11308   0.73790   0.49849   1.000
    C100    C    0.87668   0.38399   0.10139   1.000
    O101    O    0.87594   0.41547   0.15556   1.000
    O102    O    0.84663   0.35497   0.07975   1.000
    O103    O    0.90910   0.38555   0.07848   1.000
    C104    C    0.62667   0.11602   0.89861   1.000
    O105    O    0.59662   0.14503   0.92026   1.000
    O106    O    0.62593   0.08453   0.84444   1.000
    O107    O    0.65908   0.11447   0.92151   1.000
    C108    C    0.12111   0.09187   0.05471   1.000
    O109    O    0.09163   0.12381   0.03371   1.000
    O110    O    0.15583   0.09972   0.03468   1.000
    O111    O    0.11938   0.05907   0.10876   1.000
    C112    C    0.37667   0.38399   0.10141   1.000
    O113    O    0.37593   0.41547   0.15557   1.000
    O114    O    0.34662   0.35497   0.07976   1.000
    O115    O    0.40909   0.38555   0.07850   1.000
    C116    C    0.87114   0.40816   0.94533   1.000
    O117    O    0.86935   0.44094   0.89127   1.000
    O118    O    0.84166   0.37622   0.96634   1.000
    O119    O    0.90586   0.40030   0.96533   1.000
    C120    C    0.37112   0.40815   0.94533   1.000
    O121    O    0.36939   0.44094   0.89127   1.000
    O122    O    0.40585   0.40030   0.96534   1.000
    O123    O    0.34164   0.37622   0.96634   1.000
    C124    C    0.92470   0.19759   0.98751   1.000
    O125    O    0.89139   0.17292   0.95309   1.000
    O126    O    0.96665   0.18679   0.98011   1.000
    O127    O    0.92689   0.25243   0.00235   1.000
    O128    O    0.88934   0.23761   0.00237   1.000
    C129    C    0.12666   0.11602   0.89861   1.000
    O130    O    0.12592   0.08453   0.84444   1.000
    O131    O    0.09661   0.14503   0.92026   1.000
    O132    O    0.15907   0.11447   0.92151   1.000
    C133    C    0.62112   0.09187   0.05471   1.000
    O134    O    0.61939   0.05907   0.10876   1.000
    O135    O    0.65584   0.09972   0.03468   1.000
    O136    O    0.59164   0.12381   0.03371   1.000
    C137    C    0.42469   0.19759   0.98751   1.000
    O138    O    0.42687   0.25243   0.00236   1.000
    O139    O    0.38933   0.23761   0.00237   1.000
    O140    O    0.46664   0.18679   0.98011   1.000
    O141    O    0.39137   0.17292   0.95309   1.000
    C142    C    0.67470   0.30241   0.01246   1.000
    O143    O    0.67688   0.24758   0.99762   1.000
    O144    O    0.63933   0.26239   0.99762   1.000
    O145    O    0.71666   0.31321   0.01985   1.000
    O146    O    0.64139   0.32708   0.04689   1.000
    C147    C    0.17469   0.30241   0.01246   1.000
    O148    O    0.17686   0.24758   0.99762   1.000
    O149    O    0.13932   0.26239   0.99762   1.000
    O150    O    0.21664   0.31321   0.01985   1.000
    O151    O    0.14138   0.32708   0.04690   1.000
loop_
    _geom_bond_atom_site_label_1
    _geom_bond_atom_site_label_2
    _geom_bond_distance
    _geom_bond_site_symmetry_2
    _ccdc_geom_bond_type
    N19    O20       1.72643      .   S
    Zr14   O20       2.25586      .   S
    N19    O21       1.92576      .   S
    Zr13   O21       2.72454  1_556   S
    N22    O23       1.73429      .   S
    Zr10   O23       2.27586      .   S
    N22    O24       1.92363      .   S
    Zr8    O24       2.72049      .   S
    N27    O28       1.73470      .   S
    Zr11   O28       2.27666      .   S
    N27    O29       1.92353      .   S
    Zr9    O29       2.72012      .   S
    N31    O32       1.73450      .   S
    Zr6    O32       2.27659  1_455   S
    N31    O33       1.92341      .   S
    Zr5    O33       2.72046      .   S
    N34    O35       1.72655      .   S
    Zr15   O35       2.25589  1_655   S
    N34    O36       1.92579      .   S
    Zr12   O36       2.72456  1_556   S
    N37    O38       1.73501      .   S
    Zr7    O38       2.27678      .   S
    N37    O39       1.92387      .   S
    Zr4    O39       2.72032      .   S
    N41    O42       1.72618      .   S
    Zr3    O42       2.25525      .   S
    N41    O43       1.92591      .   S
    Zr1    O43       2.72482  1_554   S
    N44    O45       1.72618      .   S
    Zr2    O45       2.25525      .   S
    N44    O46       1.92591      .   S
    Zr0    O46       2.72483  1_554   S
    C48    O49       0.93028      .   S
    Zr5    O49       1.85450      .   S
    C48    O50       1.37725      .   S
    N25    O50       3.00814      .   S
    C48    O51       0.85510      .   S
    Zr11   O51       1.71612      .   S
    C52    O53       0.92863      .   S
    Zr4    O53       1.85562      .   S
    C52    O54       1.37736      .   S
    N40    O54       3.00815      .   S
    C52    O55       0.86790      .   S
    Zr10   O55       1.74392      .   S
    C56    O57       0.92851      .   S
    Zr5    O57       1.85580      .   S
    C56    O58       1.37721      .   S
    N17    O58       3.00818      .   S
    C56    O59       0.86767      .   S
    Zr11   O59       1.74302      .   S
    C60    O61       1.13259      .   S
    N31    O61       2.46217      .   S
    C60    O62       0.89729      .   S
    Zr9    O62       1.82966      .   S
    C60    O63       0.92126      .   S
    Zr11   O63       1.85476      .   S
    C60    O64       1.02215      .   S
    Zr5    O64       2.05945      .   S
    C65    O66       0.93029      .   S
    Zr9    O66       1.85527      .   S
    C65    O67       1.37717      .   S
    N18    O67       3.00771      .   S
    C65    O68       0.85492      .   S
    Zr7    O68       1.71509      .   S
    C69    O70       0.92874      .   S
    Zr8    O70       1.85597      .   S
    C69    O71       1.37727      .   S
    N47    O71       3.00804  1_545   S
    C69    O72       0.86775      .   S
    Zr6    O72       1.74380      .   S
    C73    O74       1.13290      .   S
    N27    O74       2.46264      .   S
    C73    O75       0.92142      .   S
    Zr7    O75       1.85520      .   S
    C73    O76       1.02202      .   S
    Zr9    O76       2.05906      .   S
    C73    O77       0.89720      .   S
    Zr4    O77       1.82952      .   S
    C78    O79       1.37749      .   S
    N16    O79       3.00825  1_545   S
    C78    O80       0.92872      .   S
    Zr9    O80       1.85521      .   S
    C78    O81       0.86762      .   S
    Zr7    O81       1.74361      .   S
    C82    O83       1.13323      .   S
    N37    O83       2.46154      .   S
    C82    O84       0.92144      .   S
    Zr10   O84       1.85505      .   S
    C82    O85       1.02218      .   S
    Zr4    O85       2.05948      .   S
    C82    O86       0.89733      .   S
    Zr8    O86       1.82964      .   S
    C87    O88       1.37718      .   S
    N30    O88       3.00794      .   S
    C87    O89       0.85481      .   S
    Zr10   O89       1.71509      .   S
    C87    O90       0.93026      .   S
    Zr4    O90       1.85446      .   S
    C91    O92       1.37698      .   S
    N26    O92       3.00783      .   S
    C91    O93       0.85491      .   S
    Zr6    O93       1.71506      .   S
    C91    O94       0.93021      .   S
    Zr8    O94       1.85491      .   S
    C95    O96       0.89708      .   S
    Zr5    O96       1.82916  1_655   S
    C95    O97       1.13289      .   S
    N22    O97       2.46257      .   S
    C95    O98       0.92142      .   S
    Zr6    O98       1.85519      .   S
    C95    O99       1.02208      .   S
    Zr8    O99       2.05916      .   S
    C100   O101      1.37622      .   S
    N17    O101      3.00688      .   S
    C100   O102      0.92304      .   S
    Zr1    O102      1.84155      .   S
    C100   O103      0.86210      .   S
    Zr15   O103      1.72533      .   S
    C104   O105      0.92310      .   S
    Zr13   O105      1.84165      .   S
    C104   O106      1.37620      .   S
    N16    O106      3.00672      .   S
    C104   O107      0.86210      .   S
    Zr3    O107      1.72491      .   S
    C108   O109      0.92839      .   S
    Zr12   O109      1.85460  1_556   S
    C108   O110      0.86796      .   S
    Zr2    O110      1.74566  1_556   S
    C108   O111      1.37802      .   S
    N26    O111      3.00941  1_565   S
    C112   O113      1.37617      .   S
    N40    O113      3.00654      .   S
    C112   O114      0.92313      .   S
    Zr0    O114      1.84167      .   S
    C112   O115      0.86209      .   S
    Zr14   O115      1.72501      .   S
    C116   O117      1.37820      .   S
    N25    O117      3.00937      .   S
    C116   O118      0.92818      .   S
    Zr1    O118      1.85400  1_554   S
    C116   O119      0.86793      .   S
    Zr15   O119      1.74545  1_554   S
    C120   O121      1.37814      .   S
    N30    O121      3.00968      .   S
    C120   O122      0.86805      .   S
    Zr14   O122      1.74587  1_554   S
    C120   O123      0.92817      .   S
    Zr0    O123      1.85404  1_554   S
    C124   O125      1.13476      .   S
    N41    O125      2.46703      .   S
    C124   O126      0.89903      .   S
    Zr12   O126      1.83272  1_455   S
    C124   O127      0.92225  1_556   S
    Zr15   O127      1.85730      .   S
    C124   O128      1.02138  1_556   S
    Zr1    O128      2.05814      .   S
    C129   O130      1.37619      .   S
    N47    O130      3.00671      .   S
    C129   O131      0.92310      .   S
    Zr12   O131      1.84165      .   S
    C129   O132      0.86210      .   S
    Zr2    O132      1.72491      .   S
    C133   O134      1.37801      .   S
    N18    O134      3.00936  1_565   S
    C133   O135      0.86796      .   S
    Zr3    O135      1.74567  1_556   S
    C133   O136      0.92838      .   S
    Zr13   O136      1.85458  1_556   S
    C137   O138      0.92232  1_556   S
    Zr14   O138      1.85741      .   S
    C137   O139      1.02138  1_556   S
    Zr0    O139      2.05814      .   S
    C137   O140      0.89915      .   S
    Zr13   O140      1.83309      .   S
    C137   O141      1.13476      .   S
    N44    O141      2.46702      .   S
    C142   O143      0.92214  1_554   S
    Zr3    O143      1.85733      .   S
    C142   O144      1.02121  1_554   S
    Zr13   O144      2.05790      .   S
    C142   O145      0.89918      .   S
    Zr1    O145      1.83320      .   S
    C142   O146      1.13480      .   S
    N19    O146      2.46704      .   S
    C147   O148      0.92213  1_554   S
    Zr2    O148      1.85733      .   S
    C147   O149      1.02121  1_554   S
    Zr12   O149      2.05790      .   S
    C147   O150      0.89919      .   S
    Zr0    O150      1.83319      .   S
    C147   O151      1.13489      .   S
    N34    O151      2.46696      .   S
