# CIF file generated by openbabel 2.4.90, see http://openbabel.sf.net
data_I
_chemical_name_common ''
_cell_length_a 20.636
_cell_length_b 15.499
_cell_length_c 23.722
_cell_angle_alpha 89.798
_cell_angle_beta 89.984
_cell_angle_gamma 90.015
_space_group_name_H-M_alt 'P 1'
_space_group_name_Hall 'P 1'
loop_
    _symmetry_equiv_pos_as_xyz
    x,y,z
loop_
    _atom_site_label
    _atom_site_type_symbol
    _atom_site_fract_x
    _atom_site_fract_y
    _atom_site_fract_z
    _atom_site_occupancy
    Zr0     Zr   0.30518   0.30355   0.01989   1.000
    Zr1     Zr   0.80519   0.30355   0.01989   1.000
    Zr2     Zr   0.20534   0.13719   0.98016   1.000
    Zr3     Zr   0.70535   0.13719   0.98016   1.000
    Zr4     Zr   0.44733   0.69600   0.51898   1.000
    Zr5     Zr   0.94734   0.69600   0.51898   1.000
    Zr6     Zr   0.04715   0.86317   0.48107   1.000
    Zr7     Zr   0.54716   0.86317   0.48107   1.000
    Zr8     Zr   0.19733   0.80400   0.48100   1.000
    Zr9     Zr   0.69734   0.80400   0.48103   1.000
    Zr10    Zr   0.29713   0.63683   0.51897   1.000
    Zr11    Zr   0.79714   0.63683   0.51890   1.000
    Zr12    Zr   0.05516   0.19645   0.98014   1.000
    Zr13    Zr   0.55518   0.19645   0.98014   1.000
    Zr14    Zr   0.45536   0.36283   0.01983   1.000
    Zr15    Zr   0.95538   0.36283   0.01980   1.000
    Zr16    Zr   0.12439   0.10780   0.88348   1.000
    Zr17    Zr   0.62440   0.10780   0.88348   1.000
    Zr18    Zr   0.13395   0.91735   0.57040   1.000
    Zr19    Zr   0.63396   0.91735   0.57040   1.000
    Zr20    Zr   0.40931   0.18554   0.98263   1.000
    Zr21    Zr   0.90932   0.18554   0.98263   1.000
    Zr22    Zr   0.12686   0.89526   0.38460   1.000
    Zr23    Zr   0.62687   0.89526   0.38460   1.000
    Zr24    Zr   0.11842   0.08263   0.06973   1.000
    Zr25    Zr   0.61843   0.08263   0.06973   1.000
    Zr26    Zr   0.34301   0.81447   0.48187   1.000
    Zr27    Zr   0.84302   0.81447   0.48187   1.000
    Zr28    Zr   0.37683   0.60474   0.61542   1.000
    Zr29    Zr   0.87684   0.60474   0.61543   1.000
    Zr30    Zr   0.36843   0.41740   0.93031   1.000
    Zr31    Zr   0.86845   0.41739   0.93031   1.000
    Zr32    Zr   0.09299   0.68553   0.51816   1.000
    Zr33    Zr   0.59300   0.68553   0.51816   1.000
    Zr34    Zr   0.37440   0.39221   0.11654   1.000
    Zr35    Zr   0.87441   0.39220   0.11650   1.000
    Zr36    Zr   0.38395   0.58262   0.42960   1.000
    Zr37    Zr   0.88397   0.58263   0.42964   1.000
    Zr38    Zr   0.15931   0.31446   0.01738   1.000
    Zr39    Zr   0.65933   0.31446   0.01738   1.000
    Zr40    Zr   0.17763   0.08864   0.90866   1.000
    Zr41    Zr   0.67764   0.08864   0.90866   1.000
    Zr42    Zr   0.07795   0.15163   0.90369   1.000
    Zr43    Zr   0.57796   0.15163   0.90369   1.000
    Zr44    Zr   0.07651   0.92166   0.54994   1.000
    Zr45    Zr   0.57652   0.92166   0.54994   1.000
    Zr46    Zr   0.18330   0.88510   0.54606   1.000
    Zr47    Zr   0.68331   0.88510   0.54600   1.000
    Zr48    Zr   0.40275   0.25171   0.01459   1.000
    Zr49    Zr   0.90276   0.25171   0.01459   1.000
    Zr50    Zr   0.46201   0.15552   0.96530   1.000
    Zr51    Zr   0.96202   0.15552   0.96530   1.000
    Zr52    Zr   0.07369   0.91462   0.40978   1.000
    Zr53    Zr   0.57371   0.91462   0.40978   1.000
    Zr54    Zr   0.17314   0.85124   0.40504   1.000
    Zr55    Zr   0.67315   0.85123   0.40504   1.000
    Zr56    Zr   0.17577   0.07795   0.04914   1.000
    Zr57    Zr   0.67578   0.07795   0.04914   1.000
    Zr58    Zr   0.06914   0.11504   0.04527   1.000
    Zr59    Zr   0.56915   0.11504   0.04527   1.000
    Zr60    Zr   0.34972   0.74783   0.51366   1.000
    Zr61    Zr   0.84973   0.74782   0.51366   1.000
    Zr62    Zr   0.29021   0.84453   0.46460   1.000
    Zr63    Zr   0.79023   0.84453   0.46462   1.000
    Zr64    Zr   0.32366   0.58538   0.59026   1.000
    Zr65    Zr   0.82367   0.58538   0.59026   1.000
    Zr66    Zr   0.42312   0.64879   0.59490   1.000
    Zr67    Zr   0.92313   0.64878   0.59490   1.000
    Zr68    Zr   0.42579   0.42206   0.95086   1.000
    Zr69    Zr   0.92580   0.42206   0.95086   1.000
    Zr70    Zr   0.31914   0.38501   0.95481   1.000
    Zr71    Zr   0.81916   0.38501   0.95482   1.000
    Zr72    Zr   0.09973   0.75217   0.48635   1.000
    Zr73    Zr   0.59974   0.75217   0.48635   1.000
    Zr74    Zr   0.04017   0.65546   0.53541   1.000
    Zr75    Zr   0.54018   0.65546   0.53541   1.000
    Zr76    Zr   0.42765   0.41138   0.09135   1.000
    Zr77    Zr   0.92766   0.41138   0.09135   1.000
    Zr78    Zr   0.32795   0.34838   0.09633   1.000
    Zr79    Zr   0.82796   0.34838   0.09633   1.000
    Zr80    Zr   0.32652   0.57829   0.45013   1.000
    Zr81    Zr   0.82653   0.57828   0.45013   1.000
    Zr82    Zr   0.43332   0.61491   0.45394   1.000
    Zr83    Zr   0.93333   0.61491   0.45390   1.000
    Zr84    Zr   0.15274   0.24830   0.98541   1.000
    Zr85    Zr   0.65275   0.24830   0.98541   1.000
    Zr86    Zr   0.21202   0.34447   0.03460   1.000
    Zr87    Zr   0.71203   0.34447   0.03460   1.000
    O88     O    0.92907   0.30727   0.01720   1.000
    O89     O    0.90604   0.21862   0.99861   1.000
    O90     O    0.42906   0.30727   0.01721   1.000
    O91     O    0.40603   0.21862   0.99861   1.000
    O92     O    0.68568   0.32947   0.02599   1.000
    O93     O    0.65604   0.28138   0.00140   1.000
    O94     O    0.18567   0.32947   0.02599   1.000
    O95     O    0.15603   0.28138   0.00140   1.000
    O96     O    0.94152   0.38711   0.05558   1.000
    O97     O    0.94059   0.39244   0.98533   1.000
    O98     O    0.44151   0.38710   0.05559   1.000
    O99     O    0.44058   0.39244   0.98535   1.000
    O100    O    0.75861   0.32401   0.02725   1.000
    O101    O    0.81658   0.32596   0.05811   1.000
    O102    O    0.81217   0.34428   0.98735   1.000
    O103    O    0.25860   0.32401   0.02725   1.000
    O104    O    0.31656   0.32596   0.05811   1.000
    O105    O    0.31216   0.34428   0.98735   1.000
    O106    O    0.59379   0.09884   0.05750   1.000
    O107    O    0.56216   0.15575   0.01271   1.000
    O108    O    0.09378   0.09883   0.05750   1.000
    O109    O    0.06215   0.15575   0.01271   1.000
    O110    O    0.64710   0.08029   0.05944   1.000
    O111    O    0.69056   0.10757   0.01465   1.000
    O112    O    0.14709   0.08029   0.05944   1.000
    O113    O    0.19055   0.10757   0.01465   1.000
    O114    O    0.90104   0.40179   0.10393   1.000
    O115    O    0.40103   0.40179   0.10395   1.000
    O116    O    0.35117   0.37029   0.10644   1.000
    O117    O    0.85119   0.37029   0.10642   1.000
    O118    O    0.65001   0.87325   0.39482   1.000
    O119    O    0.60029   0.90494   0.39719   1.000
    O120    O    0.15000   0.87325   0.39482   1.000
    O121    O    0.10028   0.90494   0.39719   1.000
    O122    O    0.18524   0.82762   0.44302   1.000
    O123    O    0.68525   0.82762   0.44304   1.000
    O124    O    0.56043   0.88889   0.44543   1.000
    O125    O    0.06042   0.88889   0.44543   1.000
    O126    O    0.35524   0.58046   0.43987   1.000
    O127    O    0.40863   0.59877   0.44177   1.000
    O128    O    0.85525   0.58045   0.43988   1.000
    O129    O    0.90865   0.59877   0.44177   1.000
    O130    O    0.81184   0.60755   0.48452   1.000
    O131    O    0.31182   0.60756   0.48455   1.000
    O132    O    0.94033   0.65545   0.48644   1.000
    O133    O    0.44032   0.65546   0.48646   1.000
    O134    O    0.24377   0.82427   0.47280   1.000
    O135    O    0.31661   0.82950   0.47324   1.000
    O136    O    0.74378   0.82427   0.47282   1.000
    O137    O    0.81662   0.82950   0.47325   1.000
    O138    O    0.19032   0.84455   0.51353   1.000
    O139    O    0.69033   0.84455   0.51352   1.000
    O140    O    0.57345   0.80767   0.48371   1.000
    O141    O    0.56184   0.89242   0.51551   1.000
    O142    O    0.07344   0.80767   0.48371   1.000
    O143    O    0.06183   0.89242   0.51551   1.000
    O144    O    0.34637   0.78115   0.49777   1.000
    O145    O    0.84638   0.78115   0.49777   1.000
    O146    O    0.09636   0.71885   0.50226   1.000
    O147    O    0.59637   0.71885   0.50226   1.000
    O148    O    0.32343   0.69233   0.51632   1.000
    O149    O    0.82344   0.69233   0.51628   1.000
    O150    O    0.06658   0.67050   0.52679   1.000
    O151    O    0.56659   0.67050   0.52679   1.000
    O152    O    0.81040   0.61110   0.55458   1.000
    O153    O    0.31039   0.61111   0.55462   1.000
    O154    O    0.99376   0.67573   0.52720   1.000
    O155    O    0.93524   0.67239   0.55694   1.000
    O156    O    0.49375   0.67573   0.52720   1.000
    O157    O    0.43522   0.67240   0.55694   1.000
    O158    O    0.65864   0.90122   0.55820   1.000
    O159    O    0.15863   0.90122   0.55823   1.000
    O160    O    0.60524   0.91951   0.56017   1.000
    O161    O    0.10523   0.91951   0.56017   1.000
    O162    O    0.85025   0.59506   0.60285   1.000
    O163    O    0.35024   0.59506   0.60284   1.000
    O164    O    0.39997   0.62676   0.60516   1.000
    O165    O    0.89998   0.62676   0.60517   1.000
    O166    O    0.10117   0.12971   0.89359   1.000
    O167    O    0.15101   0.09822   0.89607   1.000
    O168    O    0.60118   0.12971   0.89359   1.000
    O169    O    0.65102   0.09822   0.89607   1.000
    O170    O    0.56657   0.17404   0.94192   1.000
    O171    O    0.06656   0.17404   0.94192   1.000
    O172    O    0.19148   0.11291   0.94441   1.000
    O173    O    0.69150   0.11291   0.94441   1.000
    O174    O    0.89712   0.41973   0.94059   1.000
    O175    O    0.84380   0.40120   0.94257   1.000
    O176    O    0.39711   0.41973   0.94059   1.000
    O177    O    0.34379   0.40120   0.94256   1.000
    O178    O    0.00859   0.17599   0.97272   1.000
    O179    O    0.93567   0.17053   0.97397   1.000
    O180    O    0.50859   0.17599   0.97272   1.000
    O181    O    0.43566   0.17053   0.97397   1.000
    O182    O    0.67905   0.19275   0.98279   1.000
    O183    O    0.17904   0.19275   0.98279   1.000
    O184    O    0.35397   0.27763   0.01724   1.000
    O185    O    0.85398   0.27763   0.01724   1.000
    O186    O    0.39853   0.72191   0.51632   1.000
    O187    O    0.89854   0.72191   0.51632   1.000
    O188    O    0.14853   0.77809   0.48368   1.000
    O189    O    0.64854   0.77809   0.48369   1.000
    O190    O    0.10395   0.22238   0.98278   1.000
    O191    O    0.60396   0.22238   0.98278   1.000
    N192    N    0.63003   0.01440   0.72648   1.000
    O193    O    0.62520   0.05304   0.79028   1.000
    O194    O    0.63438   0.97462   0.66294   1.000
    N195    N    0.88003   0.48558   0.27354   1.000
    O196    O    0.87520   0.44695   0.20973   1.000
    O197    O    0.88438   0.52536   0.33709   1.000
    N198    N    0.62174   0.98716   0.22675   1.000
    O199    O    0.61766   0.02627   0.16281   1.000
    O200    O    0.62635   0.94919   0.29090   1.000
    N201    N    0.58845   0.36641   0.13645   1.000
    O202    O    0.60807   0.35174   0.08132   1.000
    O203    O    0.54359   0.35347   0.07564   1.000
    O204    O    0.56855   0.31187   0.06572   1.000
    N205    N    0.16366   0.63274   0.63710   1.000
    O206    O    0.20866   0.64607   0.57593   1.000
    O207    O    0.18371   0.68786   0.56644   1.000
    O208    O    0.14414   0.64778   0.58203   1.000
    N209    N    0.87154   0.51282   0.77327   1.000
    O210    O    0.86756   0.47373   0.83721   1.000
    O211    O    0.87624   0.55079   0.70911   1.000
    N212    N    0.12173   0.98716   0.22675   1.000
    O213    O    0.12634   0.94919   0.29091   1.000
    O214    O    0.11765   0.02627   0.16281   1.000
    N215    N    0.66367   0.63274   0.63711   1.000
    O216    O    0.64416   0.64778   0.58203   1.000
    O217    O    0.70867   0.64607   0.57592   1.000
    O218    O    0.68372   0.68786   0.56645   1.000
    N219    N    0.37172   0.51282   0.77326   1.000
    O220    O    0.37632   0.55079   0.70910   1.000
    O221    O    0.36765   0.47373   0.83722   1.000
    N222    N    0.91371   0.86727   0.36291   1.000
    O223    O    0.89419   0.85223   0.41800   1.000
    O224    O    0.95870   0.85394   0.42407   1.000
    O225    O    0.93374   0.81214   0.43355   1.000
    N226    N    0.08844   0.36640   0.13645   1.000
    O227    O    0.04359   0.35347   0.07563   1.000
    O228    O    0.06854   0.31187   0.06572   1.000
    O229    O    0.10806   0.35174   0.08133   1.000
    N230    N    0.41369   0.86727   0.36290   1.000
    O231    O    0.39418   0.85223   0.41792   1.000
    O232    O    0.45869   0.85394   0.42408   1.000
    O233    O    0.43373   0.81214   0.43356   1.000
    N234    N    0.38002   0.48559   0.27353   1.000
    O235    O    0.37519   0.44696   0.20974   1.000
    O236    O    0.38437   0.52536   0.33707   1.000
    N237    N    0.83846   0.13359   0.86355   1.000
    O238    O    0.79359   0.14654   0.92436   1.000
    O239    O    0.81855   0.18813   0.93429   1.000
    O240    O    0.85807   0.14826   0.91868   1.000
    N241    N    0.33845   0.13359   0.86355   1.000
    O242    O    0.29358   0.14654   0.92436   1.000
    O243    O    0.31854   0.18813   0.93429   1.000
    O244    O    0.35806   0.14825   0.91868   1.000
    N245    N    0.13002   0.01440   0.72648   1.000
    O246    O    0.13437   0.97462   0.66294   1.000
    O247    O    0.12518   0.05304   0.79028   1.000
loop_
    _geom_bond_atom_site_label_1
    _geom_bond_atom_site_label_2
    _geom_bond_distance
    _geom_bond_site_symmetry_2
    _ccdc_geom_bond_type
    Zr49   O88       1.01994      .   S
    Zr15   O88       1.01994      .   S
    Zr49   O89       0.64229  1_554   S
    Zr21   O89       0.64229      .   S
    Zr48   O90       1.01996      .   S
    Zr14   O90       1.01996      .   S
    Zr48   O91       0.64229  1_554   S
    Zr20   O91       0.64229      .   S
    Zr39   O92       0.62598      .   S
    Zr87   O92       0.62598      .   S
    Zr39   O93       0.64236      .   S
    Zr85   O93       0.64236  1_556   S
    Zr38   O94       0.62599      .   S
    Zr86   O94       0.62599      .   S
    Zr38   O95       0.64235      .   S
    Zr84   O95       0.64235  1_556   S
    Zr15   O96       0.97247      .   S
    Zr77   O96       0.97247      .   S
    Zr15   O97       0.98486  1_554   S
    Zr69   O97       0.98486      .   S
    Zr14   O98       0.97214      .   S
    Zr76   O98       0.97214      .   S
    Zr14   O99       0.98515  1_554   S
    Zr68   O99       0.98515      .   S
    Zr1    O100      1.02738      .   S
    Zr87   O100      1.02738      .   S
    Zr1    O101      1.00011      .   S
    Zr79   O101      1.00011      .   S
    Zr1    O102      1.00572  1_554   S
    Zr71   O102      1.00572      .   S
    Zr0    O103      1.02737      .   S
    Zr86   O103      1.02737      .   S
    Zr0    O104      1.00010      .   S
    Zr78   O104      1.00010      .   S
    Zr0    O105      1.00578  1_554   S
    Zr70   O105      1.00578      .   S
    Zr59   O106      0.63674      .   S
    Zr25   O106      0.63674      .   S
    Zr59   O107      1.00608      .   S
    Zr13   O107      1.00608  1_556   S
    Zr58   O108      0.63673      .   S
    Zr24   O108      0.63673      .   S
    Zr58   O109      1.00610      .   S
    Zr12   O109      1.00610  1_556   S
    Zr57   O110      0.64116      .   S
    Zr25   O110      0.64116      .   S
    Zr57   O111      0.98507      .   S
    Zr3    O111      0.98507  1_556   S
    Zr56   O112      0.64116      .   S
    Zr24   O112      0.64116      .   S
    Zr56   O113      0.98508      .   S
    Zr2    O113      0.98508  1_556   S
    Zr77   O114      0.64227      .   S
    Zr35   O114      0.64227      .   S
    Zr76   O115      0.64250      .   S
    Zr34   O115      0.64250      .   S
    Zr78   O116      0.63491      .   S
    Zr34   O116      0.63491      .   S
    Zr79   O117      0.63472      .   S
    Zr35   O117      0.63472      .   S
    Zr23   O118      0.63462      .   S
    Zr55   O118      0.63462      .   S
    Zr23   O119      0.64257      .   S
    Zr53   O119      0.64257      .   S
    Zr22   O120      0.63461      .   S
    Zr54   O120      0.63461      .   S
    Zr22   O121      0.64258      .   S
    Zr52   O121      0.64258      .   S
    Zr54   O122      1.00293      .   S
    Zr8    O122      1.00293      .   S
    Zr55   O123      1.00323      .   S
    Zr9    O123      1.00323      .   S
    Zr53   O124      0.97284      .   S
    Zr7    O124      0.97284      .   S
    Zr52   O125      0.97283      .   S
    Zr6    O125      0.97283      .   S
    Zr36   O126      0.64146      .   S
    Zr80   O126      0.64146      .   S
    Zr36   O127      0.63706      .   S
    Zr82   O127      0.63706      .   S
    Zr37   O128      0.64124      .   S
    Zr81   O128      0.64124      .   S
    Zr37   O129      0.63663      .   S
    Zr83   O129      0.63663      .   S
    Zr81   O130      0.98271      .   S
    Zr11   O130      0.98271      .   S
    Zr80   O131      0.98336      .   S
    Zr10   O131      0.98336      .   S
    Zr83   O132      1.00754      .   S
    Zr5    O132      1.00754      .   S
    Zr82   O133      1.00716      .   S
    Zr4    O133      1.00716      .   S
    Zr62   O134      1.02677      .   S
    Zr8    O134      1.02677      .   S
    Zr62   O135      0.62671      .   S
    Zr26   O135      0.62671      .   S
    Zr63   O136      1.02681      .   S
    Zr9    O136      1.02681      .   S
    Zr63   O137      0.62664      .   S
    Zr27   O137      0.62664      .   S
    Zr8    O138      1.00737      .   S
    Zr46   O138      1.00737      .   S
    Zr9    O139      1.00655      .   S
    Zr47   O139      1.00655      .   S
    Zr7    O140      1.01888      .   S
    Zr73   O140      1.01888      .   S
    Zr7    O141      0.98346      .   S
    Zr45   O141      0.98346      .   S
    Zr6    O142      1.01887      .   S
    Zr72   O142      1.01887      .   S
    Zr6    O143      0.98348      .   S
    Zr44   O143      0.98348      .   S
    Zr26   O144      0.64217      .   S
    Zr60   O144      0.64217      .   S
    Zr27   O145      0.64218      .   S
    Zr61   O145      0.64218      .   S
    Zr72   O146      0.64225      .   S
    Zr32   O146      0.64225      .   S
    Zr73   O147      0.64224      .   S
    Zr33   O147      0.64224      .   S
    Zr60   O148      1.01867      .   S
    Zr10   O148      1.01867      .   S
    Zr61   O149      1.01861      .   S
    Zr11   O149      1.01861      .   S
    Zr32   O150      0.62664      .   S
    Zr74   O150      0.62664      .   S
    Zr33   O151      0.62665      .   S
    Zr75   O151      0.62665      .   S
    Zr11   O152      0.97370      .   S
    Zr65   O152      0.97370      .   S
    Zr10   O153      0.97298      .   S
    Zr64   O153      0.97298      .   S
    Zr5    O154      1.02659      .   S
    Zr74   O154      1.02659  1_455   S
    Zr5    O155      1.00233      .   S
    Zr67   O155      1.00233      .   S
    Zr4    O156      1.02682      .   S
    Zr75   O156      1.02682      .   S
    Zr4    O157      1.00232      .   S
    Zr66   O157      1.00232      .   S
    Zr47   O158      0.63723      .   S
    Zr19   O158      0.63723      .   S
    Zr46   O159      0.63690      .   S
    Zr18   O159      0.63690      .   S
    Zr45   O160      0.64127      .   S
    Zr19   O160      0.64127      .   S
    Zr44   O161      0.64128      .   S
    Zr18   O161      0.64128      .   S
    Zr65   O162      0.64264      .   S
    Zr29   O162      0.64264      .   S
    Zr64   O163      0.64259      .   S
    Zr28   O163      0.64259      .   S
    Zr66   O164      0.63493      .   S
    Zr28   O164      0.63493      .   S
    Zr67   O165      0.63496      .   S
    Zr29   O165      0.63496      .   S
    Zr16   O166      0.63489      .   S
    Zr42   O166      0.63489      .   S
    Zr16   O167      0.64250      .   S
    Zr40   O167      0.64250      .   S
    Zr17   O168      0.63490      .   S
    Zr43   O168      0.63490      .   S
    Zr17   O169      0.64251      .   S
    Zr41   O169      0.64251      .   S
    Zr43   O170      1.00014      .   S
    Zr13   O170      1.00014      .   S
    Zr42   O171      1.00014      .   S
    Zr12   O171      1.00014      .   S
    Zr40   O172      0.97202      .   S
    Zr2    O172      0.97202      .   S
    Zr41   O173      0.97202      .   S
    Zr3    O173      0.97202      .   S
    Zr31   O174      0.64117      .   S
    Zr69   O174      0.64117      .   S
    Zr31   O175      0.63675      .   S
    Zr71   O175      0.63675      .   S
    Zr30   O176      0.64118      .   S
    Zr68   O176      0.64118      .   S
    Zr30   O177      0.63672      .   S
    Zr70   O177      0.63672      .   S
    Zr51   O178      1.02737  1_655   S
    Zr12   O178      1.02737      .   S
    Zr51   O179      0.62646      .   S
    Zr21   O179      0.62646      .   S
    Zr50   O180      1.02760      .   S
    Zr13   O180      1.02760      .   S
    Zr50   O181      0.62646      .   S
    Zr20   O181      0.62646      .   S
    Zr3    O182      1.02005      .   S
    Zr85   O182      1.02005      .   S
    Zr2    O183      1.02005      .   S
    Zr84   O183      1.02005      .   S
    Zr48   O184      1.08592      .   S
    Zr0    O184      1.08592      .   S
    Zr49   O185      1.08592      .   S
    Zr1    O185      1.08592      .   S
    Zr60   O186      1.08609      .   S
    Zr4    O186      1.08609      .   S
    Zr61   O187      1.08609      .   S
    Zr5    O187      1.08609      .   S
    Zr72   O188      1.08587      .   S
    Zr8    O188      1.08587      .   S
    Zr73   O189      1.08585      .   S
    Zr9    O189      1.08585      .   S
    Zr84   O190      1.08579      .   S
    Zr12   O190      1.08579      .   S
    Zr85   O191      1.08579      .   S
    Zr13   O191      1.08579      .   S
    N192   O193      1.63254      .   S
    Zr17   O193      2.37108      .   S
    N192   O194      1.63305  1_545   S
    Zr19   O194      2.37080      .   S
    N195   O196      1.63268      .   S
    Zr35   O196      2.37171      .   S
    N195   O197      1.63325      .   S
    Zr37   O197      2.37109      .   S
    N198   O199      1.63360  1_565   S
    Zr25   O199      2.37168      .   S
    N198   O200      1.63251      .   S
    Zr23   O200      2.37206      .   S
    N201   O202      1.38840      .   S
    Zr39   O202      1.93871      .   S
    N201   O203      1.72643      .   S
    Zr14   O203      2.25586      .   S
    N201   O204      1.92576      .   S
    Zr13   O204      2.72454  1_556   S
    N205   O206      1.73429      .   S
    Zr10   O206      2.27586      .   S
    N205   O207      1.92363      .   S
    Zr8    O207      2.72049      .   S
    N205   O208      1.38628      .   S
    Zr32   O208      1.93578      .   S
    N209   O210      1.63338      .   S
    Zr31   O210      2.37195      .   S
    N209   O211      1.63288      .   S
    Zr29   O211      2.37158      .   S
    N212   O213      1.63281      .   S
    Zr22   O213      2.37169      .   S
    N212   O214      1.63363  1_565   S
    Zr24   O214      2.37171      .   S
    N215   O216      1.38633      .   S
    Zr33   O216      1.93582      .   S
    N215   O217      1.73470      .   S
    Zr11   O217      2.27666      .   S
    N215   O218      1.92353      .   S
    Zr9    O218      2.72012      .   S
    N219   O220      1.63273      .   S
    Zr28   O220      2.37152      .   S
    N219   O221      1.63379      .   S
    Zr30   O221      2.37190      .   S
    N222   O223      1.38625      .   S
    Zr27   O223      1.93538      .   S
    N222   O224      1.73450      .   S
    Zr6    O224      2.27659  1_455   S
    N222   O225      1.92341      .   S
    Zr5    O225      2.72046      .   S
    N226   O227      1.72655      .   S
    Zr15   O227      2.25589  1_655   S
    N226   O228      1.92579      .   S
    Zr12   O228      2.72456  1_556   S
    N226   O229      1.38820      .   S
    Zr38   O229      1.93891      .   S
    N230   O231      1.38473      .   S
    Zr26   O231      1.93691      .   S
    N230   O232      1.73501      .   S
    Zr7    O232      2.27678      .   S
    N230   O233      1.92387      .   S
    Zr4    O233      2.72032      .   S
    N234   O235      1.63239      .   S
    Zr34   O235      2.37098      .   S
    N234   O236      1.63308      .   S
    Zr36   O236      2.37047      .   S
    N237   O238      1.72618      .   S
    Zr3    O238      2.25525      .   S
    N237   O239      1.92591      .   S
    Zr1    O239      2.72482  1_554   S
    N237   O240      1.38844      .   S
    Zr21   O240      1.93924      .   S
    N241   O242      1.72618      .   S
    Zr2    O242      2.25525      .   S
    N241   O243      1.92591      .   S
    Zr0    O243      2.72483  1_554   S
    N241   O244      1.38844      .   S
    Zr20   O244      1.93924      .   S
    N245   O246      1.63306  1_545   S
    Zr18   O246      2.37081      .   S
    N245   O247      1.63254      .   S
    Zr16   O247      2.37108      .   S
