# CIF file generated by openbabel 2.4.90, see http://openbabel.sf.net
data_I
_chemical_name_common ''
_cell_length_a 13.4
_cell_length_b 13.401
_cell_length_c 13.401
_cell_angle_alpha 59.977
_cell_angle_beta 59.995
_cell_angle_gamma 59.995
_space_group_name_H-M_alt 'P 1'
_space_group_name_Hall 'P 1'
loop_
    _symmetry_equiv_pos_as_xyz
    x,y,z
loop_
    _atom_site_label
    _atom_site_type_symbol
    _atom_site_fract_x
    _atom_site_fract_y
    _atom_site_fract_z
    _atom_site_occupancy
    Zr0     Zr   0.49997   0.50000   0.50000   1.000
    Zr1     Zr   0.99998   0.50000   0.60000   1.000
    Zr2     Zr   0.99999   0.50000   0.50000   1.000
    Zr3     Zr   0.12497   0.62493   0.62492   1.000
    Zr4     Zr   0.87498   0.37508   0.37507   1.000
    O5      O    0.99999   0.50000   0.55000   1.000
    N6      N    0.66226   0.58771   0.16214   1.000
    O7      O    0.61255   0.55444   0.27849   1.000
    O8      O    0.73698   0.51304   0.23696   1.000
    N9      N    0.66226   0.16223   0.58770   1.000
    O10     O    0.61255   0.27854   0.55444   1.000
    O11     O    0.73698   0.23701   0.51303   1.000
    N12     N    0.91211   0.41224   0.83662   1.000
    O13     O    0.94545   0.44552   0.74591   1.000
    O14     O    0.98690   0.48695   0.76241   1.000
    N15     N    0.33779   0.41225   0.41225   1.000
    O16     O    0.26301   0.48697   0.48696   1.000
    O17     O    0.22148   0.44554   0.44554   1.000
    O18     O    0.38745   0.44556   0.44556   1.000
    N19     N    0.66216   0.58775   0.58774   1.000
    O20     O    0.73694   0.51303   0.51303   1.000
    O21     O    0.61250   0.55445   0.55444   1.000
    N22     N    0.33769   0.41230   0.83650   1.000
    O23     O    0.26297   0.48697   0.76236   1.000
    O24     O    0.38740   0.44556   0.72083   1.000
    N25     N    0.33769   0.83653   0.41229   1.000
    O26     O    0.26297   0.76237   0.48696   1.000
    O27     O    0.38740   0.72085   0.44555   1.000
loop_
    _geom_bond_atom_site_label_1
    _geom_bond_atom_site_label_2
    _geom_bond_distance
    _geom_bond_site_symmetry_2
    _ccdc_geom_bond_type
    Zr2    O5        0.67003      .   S
    Zr1    O5        0.67003      .   S
    N6     O7        1.27911      .   S
    Zr0    O7        2.46465      .   S
    N6     O8        1.41675      .   S
    Zr4    O8        2.61586      .   S
    N9     O10       1.27867      .   S
    Zr0    O10       2.46419      .   S
    N9     O11       1.41634      .   S
    Zr4    O11       2.61544      .   S
    N12    O13       0.99481      .   S
    Zr1    O13       1.60203      .   S
    N12    O14       1.41626      .   S
    Zr3    O14       2.61534  1_455   S
    N15    O16       1.41612      .   S
    Zr3    O16       2.61486      .   S
    N15    O17       1.27886      .   S
    Zr2    O17       2.46461  1_655   S
    N15    O18       1.27858      .   S
    Zr0    O18       2.46406      .   S
    N19    O20       1.41612      .   S
    Zr4    O20       2.61486      .   S
    N19    O21       1.27856      .   S
    Zr0    O21       2.46400      .   S
    N22    O23       1.41039      .   S
    Zr3    O23       2.60948      .   S
    N22    O24       1.27203      .   S
    Zr0    O24       2.45783      .   S
    N25    O26       1.41045      .   S
    Zr3    O26       2.60954      .   S
    N25    O27       1.27214      .   S
    Zr0    O27       2.45795      .   S
