# CIF file generated by openbabel 2.4.90, see http://openbabel.sf.net
data_I
_chemical_name_common 'VESTA_phase_1'
_cell_length_a 18.463
_cell_length_b 21.015
_cell_length_c 15.668
_cell_angle_alpha 94.029
_cell_angle_beta 89.958
_cell_angle_gamma 89.91
_space_group_name_H-M_alt 'P 1'
_space_group_name_Hall 'P 1'
loop_
    _symmetry_equiv_pos_as_xyz
    x,y,z
loop_
    _atom_site_label
    _atom_site_type_symbol
    _atom_site_fract_x
    _atom_site_fract_y
    _atom_site_fract_z
    _atom_site_occupancy
    Zn0     Zn   0.13118   0.03591   0.29640   1.000
    Zn1     Zn   0.13119   0.53568   0.29644   1.000
    Zn2     Zn   0.63120   0.03591   0.29640   1.000
    Zn3     Zn   0.63121   0.53568   0.29644   1.000
    Zn4     Zn   0.37830   0.18585   0.18184   1.000
    Zn5     Zn   0.37832   0.68590   0.18199   1.000
    Zn6     Zn   0.87832   0.18585   0.18184   1.000
    Zn7     Zn   0.87834   0.68590   0.18199   1.000
    Zn8     Zn   0.38116   0.46611   0.70646   1.000
    Zn9     Zn   0.38124   0.96609   0.70659   1.000
    Zn10    Zn   0.88117   0.46611   0.70646   1.000
    Zn11    Zn   0.88125   0.96609   0.70659   1.000
    Zn12    Zn   0.12832   0.31443   0.81839   1.000
    Zn13    Zn   0.12853   0.81423   0.81839   1.000
    Zn14    Zn   0.62834   0.31443   0.81839   1.000
    Zn15    Zn   0.62854   0.81423   0.81839   1.000
    H16     H    0.06081   0.20682   0.77494   1.000
    H17     H    0.06104   0.70690   0.77342   1.000
    H18     H    0.56082   0.20682   0.77494   1.000
    H19     H    0.56105   0.70690   0.77342   1.000
    H20     H    0.06974   0.24962   0.69202   1.000
    H21     H    0.07066   0.75021   0.69117   1.000
    H22     H    0.56975   0.24962   0.69202   1.000
    H23     H    0.57068   0.75021   0.69117   1.000
    H24     H    0.28980   0.09018   0.28483   1.000
    H25     H    0.28998   0.59000   0.28516   1.000
    H26     H    0.78981   0.09018   0.28483   1.000
    H27     H    0.78999   0.59000   0.28516   1.000
    H28     H    0.12244   0.09055   0.10250   1.000
    H29     H    0.12237   0.59070   0.10325   1.000
    H30     H    0.62245   0.09055   0.10250   1.000
    H31     H    0.62238   0.59070   0.10325   1.000
    H32     H    0.27881   0.26519   0.06792   1.000
    H33     H    0.27790   0.76591   0.06987   1.000
    H34     H    0.77882   0.26519   0.06792   1.000
    H35     H    0.77791   0.76591   0.06987   1.000
    H36     H    0.18743   0.15598   0.98508   1.000
    H37     H    0.18695   0.65672   0.98621   1.000
    H38     H    0.68744   0.15598   0.98508   1.000
    H39     H    0.68696   0.65672   0.98621   1.000
    H40     H    0.28340   0.16255   0.99113   1.000
    H41     H    0.28291   0.66351   0.99215   1.000
    H42     H    0.78341   0.16255   0.99113   1.000
    H43     H    0.78292   0.66351   0.99215   1.000
    H44     H    0.11315   0.28393   0.26737   1.000
    H45     H    0.11026   0.78438   0.26818   1.000
    H46     H    0.61316   0.28393   0.26737   1.000
    H47     H    0.61027   0.78438   0.26818   1.000
    H48     H    0.06596   0.32284   0.18975   1.000
    H49     H    0.06431   0.82352   0.18970   1.000
    H50     H    0.56597   0.32284   0.18975   1.000
    H51     H    0.56432   0.82352   0.18970   1.000
    H52     H    0.07990   0.44275   0.19360   1.000
    H53     H    0.08014   0.94336   0.19303   1.000
    H54     H    0.57991   0.44275   0.19360   1.000
    H55     H    0.58015   0.94336   0.19303   1.000
    H56     H    0.16887   0.44087   0.19199   1.000
    H57     H    0.16909   0.94049   0.19330   1.000
    H58     H    0.66888   0.44087   0.19199   1.000
    H59     H    0.66911   0.94049   0.19330   1.000
    H60     H    0.08159   0.38977   0.32963   1.000
    H61     H    0.07904   0.89076   0.32953   1.000
    H62     H    0.58160   0.38977   0.32963   1.000
    H63     H    0.57905   0.89076   0.32953   1.000
    H64     H    0.17692   0.38628   0.31652   1.000
    H65     H    0.17440   0.88620   0.31810   1.000
    H66     H    0.67693   0.38628   0.31652   1.000
    H67     H    0.67441   0.88620   0.31819   1.000
    H68     H    0.12988   0.35937   0.62690   1.000
    H69     H    0.13012   0.85918   0.62691   1.000
    H70     H    0.62990   0.35937   0.62690   1.000
    H71     H    0.63013   0.85918   0.62691   1.000
    H72     H    0.11863   0.24777   0.09132   1.000
    H73     H    0.11758   0.74830   0.09180   1.000
    H74     H    0.61864   0.24777   0.09132   1.000
    H75     H    0.61759   0.74830   0.09180   1.000
    H76     H    0.29429   0.02487   0.54977   1.000
    H77     H    0.29456   0.52461   0.54947   1.000
    H78     H    0.79430   0.02487   0.54977   1.000
    H79     H    0.79458   0.52461   0.54947   1.000
    H80     H    0.13671   0.01827   0.59271   1.000
    H81     H    0.13712   0.51839   0.59294   1.000
    H82     H    0.63673   0.01827   0.59271   1.000
    H83     H    0.63713   0.51839   0.59294   1.000
    H84     H    0.18360   0.17092   0.76314   1.000
    H85     H    0.18371   0.67040   0.76177   1.000
    H86     H    0.68361   0.17092   0.76314   1.000
    H87     H    0.68372   0.67040   0.76177   1.000
    H88     H    0.19729   0.21913   0.67660   1.000
    H89     H    0.19801   0.71922   0.67593   1.000
    H90     H    0.69730   0.21913   0.67660   1.000
    H91     H    0.69802   0.71922   0.67593   1.000
    H92     H    0.28404   0.38650   0.82345   1.000
    H93     H    0.28404   0.88670   0.82365   1.000
    H94     H    0.78405   0.38650   0.82345   1.000
    H95     H    0.78405   0.88670   0.82365   1.000
    H96     H    0.09432   0.10370   0.67627   1.000
    H97     H    0.09405   0.60440   0.67385   1.000
    H98     H    0.59434   0.10370   0.67627   1.000
    H99     H    0.59407   0.60440   0.67385   1.000
    H100    H    0.09705   0.15837   0.59533   1.000
    H101    H    0.09777   0.65955   0.59348   1.000
    H102    H    0.59706   0.15837   0.59533   1.000
    H103    H    0.59778   0.65955   0.59348   1.000
    H104    H    0.19599   0.41060   0.50500   1.000
    H105    H    0.19620   0.91053   0.50505   1.000
    H106    H    0.69600   0.41060   0.50500   1.000
    H107    H    0.69621   0.91053   0.50505   1.000
    H108    H    0.29170   0.41378   0.51246   1.000
    H109    H    0.29189   0.91398   0.51264   1.000
    H110    H    0.79172   0.41378   0.51246   1.000
    H111    H    0.79191   0.91398   0.51264   1.000
    H112    H    0.31074   0.29390   0.22512   1.000
    H113    H    0.31070   0.79378   0.22662   1.000
    H114    H    0.81076   0.29390   0.22512   1.000
    H115    H    0.81071   0.79378   0.22662   1.000
    H116    H    0.31961   0.25101   0.30795   1.000
    H117    H    0.32014   0.75041   0.30881   1.000
    H118    H    0.81962   0.25101   0.30795   1.000
    H119    H    0.82015   0.75041   0.30881   1.000
    H120    H    0.03974   0.41106   0.71663   1.000
    H121    H    0.03978   0.91077   0.71635   1.000
    H122    H    0.53975   0.41106   0.71663   1.000
    H123    H    0.53979   0.91077   0.71635   1.000
    H124    H    0.37298   0.41097   0.90000   1.000
    H125    H    0.37298   0.91012   0.89960   1.000
    H126    H    0.87300   0.41097   0.90000   1.000
    H127    H    0.87299   0.91012   0.89960   1.000
    H128    H    0.02905   0.23505   0.93249   1.000
    H129    H    0.02892   0.73400   0.93193   1.000
    H130    H    0.52906   0.23505   0.93249   1.000
    H131    H    0.52893   0.73400   0.93193   1.000
    H132    H    0.43781   0.34430   0.01621   1.000
    H133    H    0.43804   0.84350   0.01569   1.000
    H134    H    0.93782   0.34430   0.01621   1.000
    H135    H    0.93805   0.84350   0.01569   1.000
    H136    H    0.03375   0.33739   0.00977   1.000
    H137    H    0.03396   0.83649   0.00898   1.000
    H138    H    0.53376   0.33739   0.00977   1.000
    H139    H    0.53398   0.83649   0.00898   1.000
    H140    H    0.36460   0.21731   0.73206   1.000
    H141    H    0.36301   0.71740   0.73177   1.000
    H142    H    0.86462   0.21731   0.73206   1.000
    H143    H    0.86302   0.71740   0.73177   1.000
    H144    H    0.31631   0.17960   0.80990   1.000
    H145    H    0.31551   0.67961   0.81029   1.000
    H146    H    0.81632   0.17960   0.80990   1.000
    H147    H    0.81552   0.67961   0.81029   1.000
    H148    H    0.32959   0.05942   0.80820   1.000
    H149    H    0.32963   0.55925   0.80849   1.000
    H150    H    0.82960   0.05942   0.80820   1.000
    H151    H    0.82964   0.55925   0.80849   1.000
    H152    H    0.41858   0.06100   0.81000   1.000
    H153    H    0.41861   0.56141   0.80882   1.000
    H154    H    0.91860   0.06100   0.81000   1.000
    H155    H    0.91863   0.56141   0.80882   1.000
    H156    H    0.33164   0.11113   0.67135   1.000
    H157    H    0.32954   0.61100   0.67158   1.000
    H158    H    0.83165   0.11113   0.67135   1.000
    H159    H    0.82955   0.61100   0.67158   1.000
    H160    H    0.42702   0.11404   0.68412   1.000
    H161    H    0.42497   0.61438   0.68266   1.000
    H162    H    0.92703   0.11404   0.68412   1.000
    H163    H    0.92499   0.61438   0.68266   1.000
    H164    H    0.37792   0.14029   0.37363   1.000
    H165    H    0.37835   0.64056   0.37392   1.000
    H166    H    0.87794   0.14029   0.37363   1.000
    H167    H    0.87837   0.64056   0.37392   1.000
    H168    H    0.36888   0.25301   0.90920   1.000
    H169    H    0.36869   0.75207   0.90974   1.000
    H170    H    0.86890   0.25301   0.90920   1.000
    H171    H    0.86870   0.75207   0.90974   1.000
    H172    H    0.04349   0.47535   0.45103   1.000
    H173    H    0.04365   0.97571   0.45127   1.000
    H174    H    0.54350   0.47535   0.45103   1.000
    H175    H    0.54367   0.97571   0.45127   1.000
    H176    H    0.38586   0.48175   0.40859   1.000
    H177    H    0.38613   0.98160   0.40835   1.000
    H178    H    0.88587   0.48175   0.40859   1.000
    H179    H    0.88614   0.98160   0.40835   1.000
    H180    H    0.43338   0.32973   0.23710   1.000
    H181    H    0.43333   0.83005   0.23856   1.000
    H182    H    0.93339   0.32973   0.23710   1.000
    H183    H    0.93334   0.83005   0.23856   1.000
    H184    H    0.44724   0.28112   0.32319   1.000
    H185    H    0.44760   0.78087   0.32400   1.000
    H186    H    0.94725   0.28112   0.32319   1.000
    H187    H    0.94761   0.78087   0.32400   1.000
    H188    H    0.03479   0.11558   0.17943   1.000
    H189    H    0.03432   0.61469   0.17886   1.000
    H190    H    0.53481   0.11558   0.17943   1.000
    H191    H    0.53433   0.61469   0.17886   1.000
    H192    H    0.34392   0.39665   0.32473   1.000
    H193    H    0.34354   0.89595   0.32710   1.000
    H194    H    0.84394   0.39665   0.32473   1.000
    H195    H    0.84356   0.89595   0.32710   1.000
    H196    H    0.34691   0.34162   0.40519   1.000
    H197    H    0.34742   0.84051   0.40707   1.000
    H198    H    0.84693   0.34162   0.40519   1.000
    H199    H    0.84743   0.84051   0.40707   1.000
    H200    H    0.44353   0.08904   0.49620   1.000
    H201    H    0.44422   0.58919   0.49636   1.000
    H202    H    0.94354   0.08904   0.49620   1.000
    H203    H    0.94423   0.58919   0.49636   1.000
    H204    H    0.03931   0.08663   0.48980   1.000
    H205    H    0.03996   0.58626   0.48940   1.000
    H206    H    0.53933   0.08663   0.48980   1.000
    H207    H    0.53997   0.58626   0.48940   1.000
    C208    C    0.25922   0.10214   0.22903   1.000
    C209    C    0.25931   0.60210   0.22950   1.000
    C210    C    0.75924   0.10214   0.22903   1.000
    C211    C    0.75932   0.60210   0.22950   1.000
    C212    C    0.17355   0.10186   0.13407   1.000
    C213    C    0.17347   0.60202   0.13474   1.000
    C214    C    0.67356   0.10186   0.13407   1.000
    C215    C    0.67349   0.60202   0.13474   1.000
    C216    C    0.22959   0.13828   0.10608   1.000
    C217    C    0.22936   0.63867   0.10690   1.000
    C218    C    0.72960   0.13828   0.10608   1.000
    C219    C    0.72937   0.63867   0.10690   1.000
    C220    C    0.21856   0.27403   0.95262   1.000
    C221    C    0.21842   0.77448   0.95399   1.000
    C222    C    0.71857   0.27403   0.95262   1.000
    C223    C    0.71843   0.77448   0.95399   1.000
    C224    C    0.22765   0.24690   0.04067   1.000
    C225    C    0.22692   0.74754   0.04221   1.000
    C226    C    0.72766   0.24690   0.04067   1.000
    C227    C    0.72693   0.74754   0.04221   1.000
    C228    C    0.23271   0.17303   0.02629   1.000
    C229    C    0.23223   0.67372   0.02745   1.000
    C230    C    0.73272   0.17303   0.02629   1.000
    C231    C    0.73224   0.67372   0.02745   1.000
    C232    C    0.11710   0.32409   0.22592   1.000
    C233    C    0.11503   0.82443   0.22667   1.000
    C234    C    0.61711   0.32409   0.22592   1.000
    C235    C    0.61505   0.82443   0.22667   1.000
    C236    C    0.12521   0.38593   0.28202   1.000
    C237    C    0.12320   0.88632   0.28268   1.000
    C238    C    0.62523   0.38593   0.28202   1.000
    C239    C    0.62322   0.88632   0.28268   1.000
    C240    C    0.23405   0.41196   0.63086   1.000
    C241    C    0.23415   0.91197   0.63096   1.000
    C242    C    0.73406   0.41196   0.63086   1.000
    C243    C    0.73416   0.91197   0.63096   1.000
    C244    C    0.17836   0.37602   0.66061   1.000
    C245    C    0.17853   0.87592   0.66067   1.000
    C246    C    0.67837   0.37602   0.66061   1.000
    C247    C    0.67854   0.87592   0.66067   1.000
    C248    C    0.23140   0.01428   0.43489   1.000
    C249    C    0.23150   0.51418   0.43475   1.000
    C250    C    0.73142   0.01428   0.43489   1.000
    C251    C    0.73151   0.51418   0.43475   1.000
    C252    C    0.24114   0.00517   0.53124   1.000
    C253    C    0.24132   0.50507   0.53107   1.000
    C254    C    0.74115   0.00517   0.53124   1.000
    C255    C    0.74133   0.50507   0.53107   1.000
    C256    C    0.18090   0.31098   0.16536   1.000
    C257    C    0.17945   0.81100   0.16715   1.000
    C258    C    0.68092   0.31098   0.16536   1.000
    C259    C    0.67946   0.81100   0.16715   1.000
    C260    C    0.15679   0.19069   0.70819   1.000
    C261    C    0.15723   0.69073   0.70701   1.000
    C262    C    0.65680   0.19069   0.70819   1.000
    C263    C    0.65724   0.69073   0.70701   1.000
    C264    C    0.25679   0.39089   0.76300   1.000
    C265    C    0.25685   0.89099   0.76316   1.000
    C266    C    0.75680   0.39089   0.76300   1.000
    C267    C    0.75686   0.89099   0.76316   1.000
    C268    C    0.12968   0.13718   0.64518   1.000
    C269    C    0.12990   0.63776   0.64326   1.000
    C270    C    0.62969   0.13718   0.64518   1.000
    C271    C    0.62991   0.63776   0.64326   1.000
    C272    C    0.24131   0.43259   0.54199   1.000
    C273    C    0.24141   0.93264   0.54211   1.000
    C274    C    0.74132   0.43259   0.54199   1.000
    C275    C    0.74142   0.93264   0.54211   1.000
    C276    C    0.19296   0.10312   0.59920   1.000
    C277    C    0.19299   0.60341   0.59730   1.000
    C278    C    0.69297   0.10312   0.59920   1.000
    C279    C    0.69300   0.60341   0.59730   1.000
    C280    C    0.00932   0.39908   0.77258   1.000
    C281    C    0.00935   0.89865   0.77220   1.000
    C282    C    0.50933   0.39908   0.77258   1.000
    C283    C    0.50936   0.89865   0.77220   1.000
    C284    C    0.42395   0.39946   0.86809   1.000
    C285    C    0.42396   0.89873   0.86768   1.000
    C286    C    0.92397   0.39946   0.86809   1.000
    C287    C    0.92397   0.89873   0.86768   1.000
    C288    C    0.47985   0.36241   0.89528   1.000
    C289    C    0.47988   0.86166   0.89473   1.000
    C290    C    0.97987   0.36241   0.89528   1.000
    C291    C    0.97989   0.86166   0.89473   1.000
    C292    C    0.46864   0.22602   0.04768   1.000
    C293    C    0.46851   0.72562   0.04745   1.000
    C294    C    0.96865   0.22602   0.04768   1.000
    C295    C    0.96853   0.72562   0.04745   1.000
    C296    C    0.47788   0.25344   0.95985   1.000
    C297    C    0.47785   0.75258   0.95932   1.000
    C298    C    0.97790   0.25344   0.95985   1.000
    C299    C    0.97786   0.75258   0.95932   1.000
    C300    C    0.48303   0.32725   0.97473   1.000
    C301    C    0.48316   0.82642   0.97408   1.000
    C302    C    0.98304   0.32725   0.97473   1.000
    C303    C    0.98318   0.82642   0.97408   1.000
    C304    C    0.36766   0.17741   0.77404   1.000
    C305    C    0.36648   0.67748   0.77368   1.000
    C306    C    0.86767   0.17741   0.77404   1.000
    C307    C    0.86649   0.67748   0.77368   1.000
    C308    C    0.37532   0.11513   0.71878   1.000
    C309    C    0.37376   0.61521   0.71828   1.000
    C310    C    0.87533   0.11513   0.71878   1.000
    C311    C    0.87377   0.61521   0.71828   1.000
    C312    C    0.48281   0.08857   0.37084   1.000
    C313    C    0.48299   0.58844   0.37076   1.000
    C314    C    0.98283   0.08857   0.37084   1.000
    C315    C    0.98301   0.58844   0.37076   1.000
    C316    C    0.42698   0.12418   0.34052   1.000
    C317    C    0.42722   0.62420   0.34060   1.000
    C318    C    0.92699   0.12418   0.34052   1.000
    C319    C    0.92723   0.62420   0.34060   1.000
    C320    C    0.48118   0.48579   0.56646   1.000
    C321    C    0.48120   0.98585   0.56658   1.000
    C322    C    0.98120   0.48579   0.56646   1.000
    C323    C    0.98121   0.98585   0.56658   1.000
    C324    C    0.99026   0.49487   0.46998   1.000
    C325    C    0.99029   0.99498   0.47013   1.000
    C326    C    0.49028   0.49487   0.46998   1.000
    C327    C    0.49030   0.99498   0.47013   1.000
    C328    C    0.43128   0.18995   0.83480   1.000
    C329    C    0.43076   0.68991   0.83352   1.000
    C330    C    0.93129   0.18995   0.83480   1.000
    C331    C    0.93078   0.68991   0.83352   1.000
    C332    C    0.40664   0.30975   0.29194   1.000
    C333    C    0.40683   0.80960   0.29320   1.000
    C334    C    0.90666   0.30975   0.29194   1.000
    C335    C    0.90684   0.80960   0.29320   1.000
    C336    C    0.00687   0.11057   0.23932   1.000
    C337    C    0.00664   0.61001   0.23898   1.000
    C338    C    0.50689   0.11057   0.23932   1.000
    C339    C    0.50666   0.61001   0.23898   1.000
    C340    C    0.37944   0.36302   0.35543   1.000
    C341    C    0.37949   0.86241   0.35735   1.000
    C342    C    0.87945   0.36302   0.35543   1.000
    C343    C    0.87950   0.86241   0.35735   1.000
    C344    C    0.48945   0.06755   0.45958   1.000
    C345    C    0.48986   0.56745   0.45947   1.000
    C346    C    0.98946   0.06755   0.45958   1.000
    C347    C    0.98987   0.56745   0.45947   1.000
    C348    C    0.44261   0.39696   0.40149   1.000
    C349    C    0.44250   0.89662   0.40338   1.000
    C350    C    0.94262   0.39696   0.40149   1.000
    C351    C    0.94251   0.89662   0.40338   1.000
    N352    N    0.09811   0.23340   0.74260   1.000
    N353    N    0.09872   0.73351   0.74167   1.000
    N354    N    0.59813   0.23340   0.74260   1.000
    N355    N    0.59873   0.73351   0.74167   1.000
    N356    N    0.19289   0.36259   0.74411   1.000
    N357    N    0.19305   0.86255   0.74420   1.000
    N358    N    0.69290   0.36259   0.74411   1.000
    N359    N    0.69306   0.86255   0.74420   1.000
    N360    N    0.19221   0.07926   0.21206   1.000
    N361    N    0.19234   0.57916   0.21248   1.000
    N362    N    0.69223   0.07926   0.21206   1.000
    N363    N    0.69235   0.57916   0.21248   1.000
    N364    N    0.28411   0.13820   0.16727   1.000
    N365    N    0.28399   0.63845   0.16790   1.000
    N366    N    0.78412   0.13820   0.16727   1.000
    N367    N    0.78400   0.63845   0.16790   1.000
    N368    N    0.12480   0.44387   0.23237   1.000
    N369    N    0.12444   0.94409   0.23270   1.000
    N370    N    0.62481   0.44387   0.23237   1.000
    N371    N    0.62445   0.94409   0.23270   1.000
    N372    N    0.28413   0.42167   0.69709   1.000
    N373    N    0.28416   0.92180   0.69725   1.000
    N374    N    0.78415   0.42167   0.69709   1.000
    N375    N    0.78417   0.92180   0.69725   1.000
    N376    N    0.17020   0.26654   0.10042   1.000
    N377    N    0.16910   0.76706   0.10150   1.000
    N378    N    0.67021   0.26654   0.10042   1.000
    N379    N    0.66912   0.76706   0.10150   1.000
    N380    N    0.18674   0.03892   0.58429   1.000
    N381    N    0.18707   0.53905   0.58409   1.000
    N382    N    0.68676   0.03892   0.58429   1.000
    N383    N    0.68708   0.53905   0.58409   1.000
    N384    N    0.34804   0.26722   0.25741   1.000
    N385    N    0.34832   0.76706   0.25837   1.000
    N386    N    0.84805   0.26722   0.25741   1.000
    N387    N    0.84834   0.76706   0.25837   1.000
    N388    N    0.44234   0.13815   0.25740   1.000
    N389    N    0.44234   0.63791   0.25731   1.000
    N390    N    0.94236   0.13815   0.25740   1.000
    N391    N    0.94235   0.63791   0.25731   1.000
    N392    N    0.44253   0.42243   0.79000   1.000
    N393    N    0.44253   0.92191   0.79001   1.000
    N394    N    0.94254   0.42243   0.79000   1.000
    N395    N    0.94255   0.92191   0.79001   1.000
    N396    N    0.03417   0.36243   0.83370   1.000
    N397    N    0.03420   0.86186   0.83324   1.000
    N398    N    0.53418   0.36243   0.83370   1.000
    N399    N    0.53422   0.86186   0.83324   1.000
    N400    N    0.37462   0.05777   0.76957   1.000
    N401    N    0.37419   0.55788   0.76910   1.000
    N402    N    0.87463   0.05777   0.76957   1.000
    N403    N    0.87421   0.55788   0.76910   1.000
    N404    N    0.03383   0.07971   0.30538   1.000
    N405    N    0.03371   0.57922   0.30504   1.000
    N406    N    0.53384   0.07971   0.30538   1.000
    N407    N    0.53372   0.57922   0.30504   1.000
    N408    N    0.42052   0.23423   0.89990   1.000
    N409    N    0.42028   0.73339   0.89971   1.000
    N410    N    0.92053   0.23423   0.89990   1.000
    N411    N    0.92029   0.73339   0.89971   1.000
    N412    N    0.43592   0.46107   0.41724   1.000
    N413    N    0.43611   0.96091   0.41742   1.000
    N414    N    0.93593   0.46107   0.41724   1.000
    N415    N    0.93612   0.96091   0.41742   1.000
    O416    O    0.15289   0.28883   0.93340   1.000
    O417    O    0.15287   0.78884   0.93360   1.000
    O418    O    0.65290   0.28883   0.93340   1.000
    O419    O    0.65289   0.78884   0.93360   1.000
    O420    O    0.27224   0.27759   0.90440   1.000
    O421    O    0.27263   0.77806   0.90670   1.000
    O422    O    0.77225   0.27759   0.90440   1.000
    O423    O    0.77265   0.77806   0.90670   1.000
    O424    O    0.16569   0.02778   0.41324   1.000
    O425    O    0.16576   0.52762   0.41317   1.000
    O426    O    0.66570   0.02778   0.41324   1.000
    O427    O    0.66577   0.52762   0.41317   1.000
    O428    O    0.23995   0.33966   0.17827   1.000
    O429    O    0.23853   0.83929   0.18140   1.000
    O430    O    0.73996   0.33966   0.17827   1.000
    O431    O    0.73854   0.83929   0.18140   1.000
    O432    O    0.28406   0.00567   0.38528   1.000
    O433    O    0.28414   0.50560   0.38512   1.000
    O434    O    0.78407   0.00567   0.38528   1.000
    O435    O    0.78415   0.50560   0.38512   1.000
    O436    O    0.24712   0.13339   0.57777   1.000
    O437    O    0.24684   0.63348   0.57440   1.000
    O438    O    0.74713   0.13339   0.57777   1.000
    O439    O    0.74685   0.63348   0.57440   1.000
    O440    O    0.40298   0.21109   0.06668   1.000
    O441    O    0.40283   0.71098   0.06667   1.000
    O442    O    0.90299   0.21109   0.06668   1.000
    O443    O    0.90284   0.71098   0.06667   1.000
    O444    O    0.02220   0.22236   0.09590   1.000
    O445    O    0.02204   0.72219   0.09581   1.000
    O446    O    0.52221   0.22236   0.09590   1.000
    O447    O    0.52206   0.72219   0.09581   1.000
    O448    O    0.41567   0.47249   0.58905   1.000
    O449    O    0.41568   0.97256   0.58915   1.000
    O450    O    0.91568   0.47249   0.58905   1.000
    O451    O    0.91569   0.97256   0.58915   1.000
    O452    O    0.99024   0.16095   0.82188   1.000
    O453    O    0.98976   0.66132   0.81890   1.000
    O454    O    0.49025   0.16095   0.82188   1.000
    O455    O    0.48978   0.66132   0.81890   1.000
    O456    O    0.03425   0.49437   0.61526   1.000
    O457    O    0.03426   0.99438   0.61540   1.000
    O458    O    0.53426   0.49437   0.61526   1.000
    O459    O    0.53427   0.99438   0.61540   1.000
    O460    O    0.99701   0.36666   0.42231   1.000
    O461    O    0.99660   0.86652   0.42559   1.000
    O462    O    0.49702   0.36666   0.42231   1.000
    O463    O    0.49661   0.86652   0.42559   1.000
loop_
    _geom_bond_atom_site_label_1
    _geom_bond_atom_site_label_2
    _geom_bond_distance
    _geom_bond_site_symmetry_2
    _ccdc_geom_bond_type
    H137   C303      1.09919  1_454   S
    H139   C301      1.09959  1_554   S
    H138   C300      1.09964  1_554   S
    H136   C302      1.09923  1_454   S
    H133   C301      1.10146  1_554   S
    H135   C303      1.10146  1_554   S
    H132   C300      1.10148  1_554   S
    H134   C302      1.10148  1_554   S
    C230   C226      1.55541      .   S
    C230   C218      1.49263      .   S
    C230   H38       1.10158  1_554   S
    C230   H42       1.09971  1_554   S
    C228   C224      1.55541      .   S
    C228   C216      1.49263      .   S
    C228   H36       1.10158  1_554   S
    C228   H40       1.09972  1_554   S
    C231   C227      1.55526      .   S
    C231   C219      1.49129      .   S
    C231   H39       1.10156  1_554   S
    C231   H43       1.09965  1_554   S
    C229   C225      1.55526      .   S
    C229   C217      1.49129      .   S
    C229   H37       1.10155  1_554   S
    C229   H41       1.09965  1_554   S
    C226   H34       1.09581      .   S
    C226   N378      1.45423      .   S
    C226   C222      1.53849  1_554   S
    C224   H32       1.09581      .   S
    C224   N376      1.45423      .   S
    C224   C220      1.53849  1_554   S
    C227   H35       1.09578      .   S
    C227   N379      1.45411      .   S
    C227   C223      1.53808  1_554   S
    C225   H33       1.09579      .   S
    C225   N377      1.45411      .   S
    C225   C221      1.53808  1_554   S
    C295   O443      1.29223      .   S
    C295   O445      1.25062  1_655   S
    C295   C299      1.53857  1_554   S
    C293   O441      1.29223      .   S
    C293   O447      1.25100      .   S
    C293   C297      1.53857  1_554   S
    C294   O442      1.29244      .   S
    C294   O444      1.25023  1_655   S
    C294   C298      1.53828  1_554   S
    C292   O440      1.29242      .   S
    C292   O446      1.25061      .   S
    C292   C296      1.53829  1_554   S
    O443   Zn7       1.96987      .   S
    O441   Zn5       1.96987      .   S
    O442   Zn6       1.96939      .   S
    O440   Zn4       1.96940      .   S
    H72    N376      1.03726      .   S
    H74    N378      1.03724      .   S
    H73    N377      1.03751      .   S
    H75    N379      1.03753      .   S
    N378   C258      1.34685      .   S
    N376   C256      1.34685      .   S
    N379   C259      1.34708      .   S
    N377   C257      1.34708      .   S
    H30    C214      1.08468      .   S
    H28    C212      1.08468      .   S
    H29    C213      1.08404      .   S
    H31    C215      1.08406      .   S
    C216   C212      1.37757      .   S
    C216   N364      1.39071      .   S
    C218   C214      1.37755      .   S
    C218   N366      1.39072      .   S
    C217   C213      1.37728      .   S
    C217   N365      1.39030      .   S
    C219   C215      1.37727      .   S
    C219   N367      1.39031      .   S
    C214   N362      1.38538      .   S
    C212   N360      1.38538      .   S
    C215   N363      1.38498      .   S
    C213   N361      1.38498      .   S
    C258   O430      1.25613      .   S
    C258   C234      1.52459      .   S
    C256   O428      1.25613      .   S
    C256   C232      1.52459      .   S
    C259   O431      1.25576      .   S
    C259   C235      1.52449      .   S
    C257   O429      1.25576      .   S
    C257   C233      1.52449      .   S
    N366   Zn6       2.01326      .   S
    N366   C210      1.35097      .   S
    N364   Zn4       2.01326      .   S
    N364   C208      1.35096      .   S
    N367   Zn7       2.01285      .   S
    N367   C211      1.35155      .   S
    N365   Zn5       2.01285      .   S
    N365   C209      1.35155      .   S
    H191   C339      1.08193      .   S
    H189   C337      1.08193      .   S
    H190   C338      1.08197      .   S
    H188   C336      1.08196      .   S
    Zn6    N390      1.99237      .   S
    Zn6    N386      2.08555      .   S
    Zn4    N388      1.99237      .   S
    Zn4    N384      2.08555      .   S
    Zn5    N389      1.99307      .   S
    Zn5    N385      2.08736      .   S
    Zn7    N391      1.99305      .   S
    Zn7    N387      2.08736      .   S
    H51    C235      1.10099      .   S
    H49    C233      1.10099      .   S
    H50    C234      1.10107      .   S
    H48    C232      1.10108      .   S
    H58    N370      1.02945      .   S
    H56    N368      1.02947      .   S
    H53    N369      1.02704      .   S
    H55    N371      1.02702      .   S
    H59    N371      1.02914      .   S
    H57    N369      1.02913      .   S
    H54    N370      1.02745      .   S
    H52    N368      1.02745      .   S
    N360   C208      1.34796      .   S
    N360   Zn0       2.00401      .   S
    N362   C210      1.34796      .   S
    N362   Zn2       2.00400      .   S
    N361   C209      1.34797      .   S
    N361   Zn1       2.00233      .   S
    N363   C211      1.34797      .   S
    N363   Zn3       2.00233      .   S
    H114   N386      1.04094      .   S
    H112   N384      1.04094      .   S
    C232   H44       1.10296      .   S
    C232   C236      1.52459      .   S
    C234   H46       1.10296      .   S
    C234   C238      1.52459      .   S
    H115   N387      1.04103      .   S
    H113   N385      1.04101      .   S
    C235   H47       1.10287      .   S
    C235   C239      1.52471      .   S
    C233   H45       1.10287      .   S
    C233   C237      1.52471      .   S
    C210   H26       1.08506      .   S
    C208   H24       1.08505      .   S
    C211   H27       1.08505      .   S
    C209   H25       1.08506      .   S
    N370   C238      1.49015      .   S
    N370   Zn3       2.11509      .   S
    N368   C236      1.49017      .   S
    N368   Zn1       2.11507      .   S
    N371   C239      1.49032      .   S
    N371   Zn2       2.11316  1_565   S
    N369   C237      1.49032      .   S
    N369   Zn0       2.11316  1_565   S
    H182   C334      1.09953      .   S
    H180   C332      1.09953      .   S
    H181   C333      1.09947      .   S
    H183   C335      1.09947      .   S
    C339   N389      1.34540      .   S
    C339   N407      1.35408      .   S
    C337   N391      1.34500  1_455   S
    C337   N405      1.35408      .   S
    C338   N388      1.34549      .   S
    C338   N406      1.35414      .   S
    C336   N390      1.34508  1_455   S
    C336   N404      1.35414      .   S
    N391   C319      1.38434      .   S
    N389   C317      1.38434      .   S
    N390   C318      1.38431      .   S
    N388   C316      1.38431      .   S
    N386   C334      1.48260      .   S
    N386   H118      1.02787      .   S
    N384   C332      1.48261      .   S
    N384   H116      1.02787      .   S
    N385   C333      1.48288      .   S
    N385   H117      1.02791      .   S
    N387   C335      1.48288      .   S
    N387   H119      1.02791      .   S
    C236   H64       1.09717      .   S
    C236   H60       1.09646      .   S
    C238   H66       1.09719      .   S
    C238   H62       1.09646      .   S
    C237   H65       1.09648      .   S
    C237   H61       1.09622      .   S
    C239   H67       1.09718      .   S
    C239   H63       1.09623      .   S
    C334   H186      1.09721      .   S
    C334   C342      1.52856      .   S
    C332   H184      1.09720      .   S
    C332   C340      1.52857      .   S
    C333   H185      1.09736      .   S
    C333   C341      1.52893      .   S
    C335   H187      1.09736      .   S
    C335   C343      1.52894      .   S
    Zn2    N406      2.01847      .   S
    Zn2    O426      1.95748      .   S
    Zn0    N404      2.01845      .   S
    Zn0    O424      1.95749      .   S
    Zn1    N405      2.01780      .   S
    Zn1    O425      1.95597      .   S
    Zn3    N407      2.01782      .   S
    Zn3    O427      1.95596      .   S
    N407   C313      1.39464      .   S
    N405   C315      1.39433  1_455   S
    N406   C312      1.39478      .   S
    N404   C314      1.39447  1_455   S
    H192   C340      1.09887      .   S
    H194   C342      1.09887      .   S
    H193   C341      1.09889      .   S
    H195   C343      1.09888      .   S
    C316   C312      1.37724      .   S
    C316   H164      1.08518      .   S
    C318   C314      1.37725      .   S
    C318   H166      1.08518      .   S
    C319   C315      1.37729      .   S
    C319   H167      1.08523      .   S
    C317   C313      1.37729      .   S
    C317   H165      1.08522      .   S
    C342   C350      1.52349      .   S
    C342   H198      1.10467      .   S
    C340   C348      1.52349      .   S
    C340   H196      1.10467      .   S
    C343   C351      1.52362      .   S
    C343   H199      1.10456      .   S
    C341   C349      1.52362      .   S
    C341   H197      1.10457      .   S
    C315   C347      1.49289      .   S
    C313   C345      1.49289      .   S
    C314   C346      1.49315      .   S
    C312   C344      1.49315      .   S
    O435   C251      1.24914      .   S
    O433   C249      1.24915      .   S
    O434   C250      1.24924      .   S
    O432   C248      1.24923      .   S
    C348   N412      1.35803      .   S
    C348   O462      1.24455      .   S
    C350   N414      1.35803      .   S
    C350   O460      1.24416      .   S
    C349   N413      1.35846      .   S
    C349   O463      1.24452      .   S
    C351   N415      1.35846      .   S
    C351   O461      1.24415      .   S
    H177   N413      1.03368      .   S
    H179   N415      1.03368      .   S
    H178   N414      1.03379      .   S
    H176   N412      1.03379      .   S
    O425   C249      1.29628      .   S
    O427   C251      1.29629      .   S
    O424   C248      1.29637      .   S
    O426   C250      1.29637      .   S
    N414   C324      1.45422      .   S
    N412   C326      1.45455      .   S
    N415   C325      1.45439      .   S
    N413   C327      1.45472      .   S
    C249   C253      1.54529      .   S
    C251   C255      1.54529      .   S
    C248   C252      1.54555      .   S
    C250   C254      1.54555      .   S
    H172   C324      1.09700  1_455   S
    H174   C326      1.09700      .   S
    H173   C325      1.09702  1_455   S
    H175   C327      1.09701      .   S
    C347   C324      1.54552      .   S
    C347   H205      1.09868  1_655   S
    C347   H203      1.10178      .   S
    C345   C326      1.54552      .   S
    C345   H207      1.09907      .   S
    C345   H201      1.10180      .   S
    C346   C325      1.54555  1_545   S
    C346   H204      1.09866  1_655   S
    C346   H202      1.10171      .   S
    C344   C327      1.54555  1_545   S
    C344   H206      1.09905      .   S
    C344   H200      1.10173      .   S
    C324   C322      1.54589      .   S
    C326   C320      1.54594      .   S
    C325   C323      1.54568      .   S
    C327   C321      1.54573      .   S
    H104   C272      1.10170      .   S
    H106   C274      1.10170      .   S
    H105   C273      1.10171      .   S
    H107   C275      1.10170      .   S
    H108   C272      1.09938      .   S
    H110   C274      1.09938      .   S
    H109   C273      1.09932      .   S
    H111   C275      1.09930      .   S
    C255   C274      1.54473      .   S
    C255   H79       1.09694      .   S
    C255   N383      1.45475      .   S
    C253   C272      1.54473      .   S
    C253   H77       1.09694      .   S
    C253   N381      1.45474      .   S
    C254   C275      1.54559  1_545   S
    C254   H78       1.09695      .   S
    C254   N382      1.45477      .   S
    C252   C273      1.54557  1_545   S
    C252   H76       1.09693      .   S
    C252   N380      1.45478      .   S
    C274   C242      1.49312      .   S
    C272   C240      1.49312      .   S
    C273   C241      1.49314      .   S
    C275   C243      1.49313      .   S
    C322   O450      1.29650      .   S
    C322   O456      1.24852  1_655   S
    C320   O448      1.29648      .   S
    C320   O458      1.24888      .   S
    C323   O451      1.29642      .   S
    C323   O457      1.24857  1_655   S
    C321   O449      1.29640      .   S
    C321   O459      1.24895      .   S
    O437   C277      1.24490      .   S
    O439   C279      1.24490      .   S
    O438   C278      1.24450      .   S
    O436   C276      1.24448      .   S
    N381   H81       1.03338      .   S
    N381   C277      1.35840      .   S
    N383   H83       1.03336      .   S
    N383   C279      1.35840      .   S
    N380   H80       1.03353      .   S
    N380   C276      1.35798      .   S
    N382   H82       1.03353      .   S
    N382   C278      1.35798      .   S
    O450   Zn10      1.95991      .   S
    O448   Zn8       1.95992      .   S
    O451   Zn11      1.96017      .   S
    O449   Zn9       1.96018      .   S
    H103   C271      1.10448      .   S
    H101   C269      1.10448      .   S
    H102   C270      1.10464      .   S
    H100   C268      1.10463      .   S
    C277   C269      1.52298      .   S
    C279   C271      1.52298      .   S
    C276   C268      1.52317      .   S
    C278   C270      1.52316      .   S
    H70    C246      1.08532      .   S
    H68    C244      1.08532      .   S
    H71    C247      1.08534      .   S
    H69    C245      1.08536      .   S
    C240   C244      1.37709      .   S
    C240   N372      1.39489      .   S
    C242   C246      1.37711      .   S
    C242   N374      1.39489      .   S
    C241   C245      1.37716      .   S
    C241   N373      1.39490      .   S
    C243   C247      1.37719      .   S
    C243   N375      1.39490      .   S
    C271   H99       1.09891      .   S
    C271   C263      1.52886      .   S
    C269   H97       1.09892      .   S
    C269   C261      1.52885      .   S
    C270   H98       1.09887      .   S
    C270   C262      1.52843      .   S
    C268   H96       1.09887      .   S
    C268   C260      1.52843      .   S
    C246   N358      1.38399      .   S
    C244   N356      1.38399      .   S
    C245   N357      1.38404      .   S
    C247   N359      1.38404      .   S
    H158   C310      1.09640      .   S
    H156   C308      1.09639      .   S
    H159   C311      1.09629      .   S
    H157   C309      1.09630      .   S
    H89    C261      1.09732      .   S
    H91    C263      1.09732      .   S
    H88    C260      1.09723      .   S
    H90    C262      1.09723      .   S
    H161   C309      1.09710      .   S
    H163   C311      1.09712      .   S
    H160   C308      1.09717      .   S
    H162   C310      1.09716      .   S
    H21    N353      1.02794      .   S
    H23    N355      1.02795      .   S
    H20    N352      1.02794      .   S
    H22    N354      1.02795      .   S
    N374   Zn10      2.02214      .   S
    N374   C266      1.35417      .   S
    N372   Zn8       2.02214      .   S
    N372   C264      1.35417      .   S
    N375   Zn11      2.02165      .   S
    N375   C267      1.35426      .   S
    N373   Zn9       2.02165      .   S
    N373   C265      1.35426      .   S
    Zn8    N401      2.10528      .   S
    Zn8    N392      2.00182      .   S
    Zn10   N403      2.10528      .   S
    Zn10   N394      2.00182      .   S
    Zn9    N400      2.10535  1_565   S
    Zn9    N393      2.00511      .   S
    Zn11   N402      2.10535  1_565   S
    Zn11   N395      2.00511      .   S
    C261   N353      1.48253      .   S
    C261   H85       1.09958      .   S
    C263   N355      1.48253      .   S
    C263   H87       1.09956      .   S
    C262   N354      1.48257      .   S
    C262   H86       1.09960      .   S
    C260   N352      1.48257      .   S
    C260   H84       1.09960      .   S
    H123   C283      1.08502      .   S
    H121   C281      1.08502      .   S
    H122   C282      1.08536      .   S
    H120   C280      1.08537      .   S
    C311   N403      1.49016      .   S
    C311   C307      1.52427      .   S
    C309   N401      1.49016      .   S
    C309   C305      1.52427      .   S
    C310   N402      1.49035      .   S
    C310   C306      1.52404      .   S
    C308   N400      1.49035      .   S
    C308   C304      1.52404      .   S
    H143   C307      1.10298      .   S
    H141   C305      1.10298      .   S
    H140   C304      1.10292      .   S
    H142   C306      1.10292      .   S
    N355   H19       1.04115      .   S
    N355   Zn15      2.08395      .   S
    N353   H17       1.04114      .   S
    N353   Zn13      2.08395      .   S
    N352   H16       1.04100      .   S
    N352   Zn12      2.08337      .   S
    N354   H18       1.04101      .   S
    N354   Zn14      2.08337      .   S
    N358   C266      1.34578      .   S
    N358   Zn14      1.99183      .   S
    N356   C264      1.34576      .   S
    N356   Zn12      1.99184      .   S
    N359   C267      1.34570      .   S
    N359   Zn15      1.99219      .   S
    N357   C265      1.34570      .   S
    N357   Zn13      1.99219      .   S
    C266   H94       1.08233      .   S
    C264   H92       1.08233      .   S
    C265   H93       1.08209      .   S
    C267   H95       1.08209      .   S
    N401   H149      1.02739      .   S
    N401   H153      1.02951      .   S
    N403   H151      1.02737      .   S
    N403   H155      1.02953      .   S
    N402   H150      1.02716      .   S
    N402   H154      1.02937      .   S
    N400   H148      1.02716      .   S
    N400   H152      1.02937      .   S
    C283   N393      1.34824      .   S
    C283   N399      1.35133      .   S
    C281   N395      1.34780  1_455   S
    C281   N397      1.35133      .   S
    C282   N392      1.34740      .   S
    C282   N398      1.35057      .   S
    C280   N394      1.34696  1_455   S
    C280   N396      1.35058      .   S
    C307   H147      1.10096      .   S
    C307   C331      1.52453      .   S
    C305   H145      1.10095      .   S
    C305   C329      1.52453      .   S
    C306   H146      1.10095      .   S
    C306   C330      1.52408      .   S
    C304   H144      1.10094      .   S
    C304   C328      1.52410      .   S
    N392   C284      1.38940      .   S
    N394   C286      1.38940      .   S
    N393   C285      1.38524      .   S
    N395   C287      1.38524      .   S
    Zn15   N399      2.01254      .   S
    Zn15   O419      1.97004      .   S
    Zn12   N396      2.01420      .   S
    Zn12   O416      1.96945      .   S
    Zn13   N397      2.01252      .   S
    Zn13   O417      1.97004      .   S
    Zn14   N398      2.01422      .   S
    Zn14   O418      1.96945      .   S
    O453   C331      1.25614      .   S
    O455   C329      1.25655      .   S
    O452   C330      1.25598      .   S
    O454   C328      1.25638      .   S
    N399   C289      1.39063      .   S
    N397   C291      1.39031  1_455   S
    C329   N409      1.34673      .   S
    C331   N411      1.34673      .   S
    N398   C288      1.39125      .   S
    N396   C290      1.39092  1_455   S
    C330   N410      1.34585      .   S
    C328   N408      1.34585      .   S
    C285   C289      1.37749      .   S
    C285   H125      1.08400      .   S
    C287   C291      1.37749      .   S
    C287   H127      1.08398      .   S
    C284   C288      1.37758      .   S
    C284   H124      1.08428      .   S
    C286   C290      1.37758      .   S
    C286   H126      1.08428      .   S
    C291   C303      1.49228      .   S
    C289   C301      1.49228      .   S
    C290   C302      1.49273      .   S
    C288   C300      1.49273      .   S
    N409   H169      1.03730      .   S
    N409   C297      1.45410      .   S
    N411   H171      1.03732      .   S
    N411   C299      1.45410      .   S
    N410   H170      1.03741      .   S
    N410   C298      1.45488      .   S
    N408   H168      1.03743      .   S
    N408   C296      1.45488      .   S
    O422   C222      1.25128      .   S
    O420   C220      1.25128      .   S
    O423   C223      1.25044      .   S
    O421   C221      1.25045      .   S
    H131   C297      1.09588      .   S
    H129   C299      1.09548  1_455   S
    H130   C296      1.09585      .   S
    H128   C298      1.09545  1_455   S
    O416   C220      1.29225      .   S
    O418   C222      1.29227      .   S
    O419   C223      1.29246      .   S
    O417   C221      1.29246      .   S
    C299   C303      1.55610      .   S
    C297   C301      1.55610      .   S
    C296   C300      1.55538      .   S
    C298   C302      1.55538      .   S
