# CIF file generated by openbabel 2.4.90, see http://openbabel.sf.net
data_I
_chemical_name_common ''
_cell_length_a 16.201
_cell_length_b 21.517
_cell_length_c 18.871
_cell_angle_alpha 90
_cell_angle_beta 90.009
_cell_angle_gamma 90
_space_group_name_H-M_alt 'P 1'
_space_group_name_Hall 'P 1'
loop_
    _symmetry_equiv_pos_as_xyz
    x,y,z
loop_
    _atom_site_label
    _atom_site_type_symbol
    _atom_site_fract_x
    _atom_site_fract_y
    _atom_site_fract_z
    _atom_site_occupancy
    Zr0     Zr   0.31197   0.37504   0.42065   1.000
    Zr1     Zr   0.31199   0.87499   0.42065   1.000
    Zr2     Zr   0.81198   0.37504   0.42065   1.000
    Zr3     Zr   0.81201   0.87499   0.42065   1.000
    Zr4     Zr   0.43799   0.12502   0.92063   1.000
    Zr5     Zr   0.43804   0.62499   0.92060   1.000
    Zr6     Zr   0.93800   0.12502   0.92063   1.000
    Zr7     Zr   0.93805   0.62499   0.92061   1.000
    Zr8     Zr   0.18795   0.12502   0.57938   1.000
    Zr9     Zr   0.18799   0.62498   0.57939   1.000
    Zr10    Zr   0.68797   0.12502   0.57938   1.000
    Zr11    Zr   0.68800   0.62498   0.57939   1.000
    Zr12    Zr   0.06192   0.37503   0.07942   1.000
    Zr13    Zr   0.06196   0.87499   0.07941   1.000
    Zr14    Zr   0.56193   0.37503   0.07942   1.000
    Zr15    Zr   0.56197   0.87499   0.07941   1.000
    Zr16    Zr   0.49041   0.12503   0.26293   1.000
    Zr17    Zr   0.49051   0.62501   0.26293   1.000
    Zr18    Zr   0.99042   0.12503   0.26293   1.000
    Zr19    Zr   0.99052   0.62501   0.26293   1.000
    Zr20    Zr   0.25943   0.37501   0.76296   1.000
    Zr21    Zr   0.25952   0.87498   0.76295   1.000
    Zr22    Zr   0.75944   0.37501   0.76296   1.000
    Zr23    Zr   0.75953   0.87498   0.76295   1.000
    Zr24    Zr   0.00945   0.37500   0.73711   1.000
    Zr25    Zr   0.00954   0.87498   0.73711   1.000
    Zr26    Zr   0.50946   0.37500   0.73711   1.000
    Zr27    Zr   0.50955   0.87498   0.73711   1.000
    Zr28    Zr   0.24042   0.12504   0.23708   1.000
    Zr29    Zr   0.24052   0.62501   0.23708   1.000
    Zr30    Zr   0.74044   0.12504   0.23708   1.000
    Zr31    Zr   0.74054   0.62501   0.23708   1.000
    Zr32    Zr   0.13802   0.37503   0.42316   1.000
    Zr33    Zr   0.13804   0.87497   0.42317   1.000
    Zr34    Zr   0.63803   0.37503   0.42316   1.000
    Zr35    Zr   0.63806   0.87497   0.42317   1.000
    Zr36    Zr   0.11193   0.12504   0.92301   1.000
    Zr37    Zr   0.11198   0.62499   0.92299   1.000
    Zr38    Zr   0.61194   0.12504   0.92301   1.000
    Zr39    Zr   0.61199   0.62499   0.92299   1.000
    Zr40    Zr   0.36190   0.12505   0.57686   1.000
    Zr41    Zr   0.36194   0.62499   0.57688   1.000
    Zr42    Zr   0.86192   0.12505   0.57686   1.000
    Zr43    Zr   0.86195   0.62499   0.57688   1.000
    Zr44    Zr   0.38798   0.37503   0.07705   1.000
    Zr45    Zr   0.38802   0.87497   0.07703   1.000
    Zr46    Zr   0.88799   0.37503   0.07705   1.000
    Zr47    Zr   0.88803   0.87497   0.07703   1.000
    O48     O    0.47500   0.87498   0.07822   1.000
    O49     O    0.97500   0.87498   0.07822   1.000
    O50     O    0.97495   0.37503   0.07823   1.000
    O51     O    0.47495   0.37503   0.07823   1.000
    O52     O    0.22499   0.37503   0.42190   1.000
    O53     O    0.22502   0.87498   0.42191   1.000
    O54     O    0.72503   0.87498   0.42191   1.000
    O55     O    0.72500   0.37503   0.42190   1.000
    O56     O    0.77494   0.12503   0.57812   1.000
    O57     O    0.27493   0.12503   0.57812   1.000
    O58     O    0.77497   0.62499   0.57813   1.000
    O59     O    0.27496   0.62499   0.57813   1.000
    O60     O    0.52501   0.62499   0.92179   1.000
    O61     O    0.02501   0.62499   0.92180   1.000
    O62     O    0.52496   0.12503   0.92182   1.000
    O63     O    0.02496   0.12503   0.92182   1.000
    C64     C    0.88432   0.62499   0.08606   1.000
    O65     O    0.83486   0.62499   0.13689   1.000
    O66     O    0.91832   0.62500   0.14651   1.000
    O67     O    0.90049   0.62498   0.03176   1.000
    C68     C    0.35454   0.50084   0.33220   1.000
    O69     O    0.40090   0.54293   0.30902   1.000
    O70     O    0.31754   0.54306   0.29890   1.000
    O71     O    0.34214   0.45957   0.36109   1.000
    C72     C    0.88423   0.12507   0.08613   1.000
    O73     O    0.83477   0.12507   0.13692   1.000
    O74     O    0.90041   0.12506   0.03180   1.000
    O75     O    0.91823   0.12507   0.14665   1.000
    C76     C    0.35444   0.00084   0.33121   1.000
    O77     O    0.40080   0.04295   0.30852   1.000
    O78     O    0.34208   0.95956   0.36060   1.000
    O79     O    0.31744   0.04307   0.29839   1.000
    C80     C    0.86574   0.37503   0.58616   1.000
    O81     O    0.83171   0.37502   0.64667   1.000
    O82     O    0.91517   0.37503   0.63696   1.000
    O83     O    0.84956   0.37504   0.53183   1.000
    C84     C    0.86581   0.87495   0.58615   1.000
    O85     O    0.83179   0.87495   0.64667   1.000
    O86     O    0.84962   0.87496   0.53182   1.000
    O87     O    0.91525   0.87495   0.63695   1.000
    C88     C    0.60459   0.74920   0.16786   1.000
    O89     O    0.59218   0.79047   0.13898   1.000
    O90     O    0.65094   0.70710   0.19103   1.000
    O91     O    0.56757   0.70698   0.20114   1.000
    C92     C    0.64551   0.99918   0.66782   1.000
    O93     O    0.65787   0.04045   0.63893   1.000
    O94     O    0.59916   0.95707   0.69101   1.000
    O95     O    0.68252   0.95695   0.70112   1.000
    C96     C    0.10456   0.50082   0.16787   1.000
    O97     O    0.09214   0.45956   0.13899   1.000
    O98     O    0.06755   0.54305   0.20115   1.000
    O99     O    0.15092   0.54292   0.19103   1.000
    C100    C    0.35455   0.74919   0.33217   1.000
    O101    O    0.40091   0.70709   0.30899   1.000
    O102    O    0.34216   0.79046   0.36107   1.000
    O103    O    0.31755   0.70697   0.29887   1.000
    C104    C    0.13423   0.62499   0.41387   1.000
    O105    O    0.15040   0.62499   0.46821   1.000
    O106    O    0.08480   0.62499   0.36308   1.000
    O107    O    0.16826   0.62500   0.35336   1.000
    C108    C    0.60448   0.00083   0.16781   1.000
    O109    O    0.56746   0.04306   0.20113   1.000
    O110    O    0.65083   0.04294   0.19092   1.000
    O111    O    0.59210   0.95956   0.13894   1.000
    C112    C    0.14542   0.49918   0.66784   1.000
    O113    O    0.18242   0.45696   0.70114   1.000
    O114    O    0.15781   0.54045   0.63895   1.000
    O115    O    0.09905   0.45709   0.69102   1.000
    C116    C    0.64542   0.25083   0.66784   1.000
    O117    O    0.65781   0.20956   0.63895   1.000
    O118    O    0.59906   0.29292   0.69102   1.000
    O119    O    0.68242   0.29305   0.70115   1.000
    C120    C    0.13415   0.12507   0.41376   1.000
    O121    O    0.08471   0.12506   0.36302   1.000
    O122    O    0.15034   0.12506   0.46797   1.000
    O123    O    0.16817   0.12506   0.35330   1.000
    C124    C    0.36580   0.87495   0.58615   1.000
    O125    O    0.34961   0.87496   0.53182   1.000
    O126    O    0.41525   0.87495   0.63695   1.000
    O127    O    0.33178   0.87495   0.64667   1.000
    C128    C    0.61574   0.87494   0.91389   1.000
    O129    O    0.59956   0.87495   0.96823   1.000
    O130    O    0.66520   0.87495   0.86308   1.000
    O131    O    0.58174   0.87495   0.85338   1.000
    C132    C    0.39548   0.99918   0.83219   1.000
    O133    O    0.43250   0.95696   0.79889   1.000
    O134    O    0.34913   0.95708   0.80902   1.000
    O135    O    0.40786   0.04046   0.86107   1.000
    C136    C    0.10458   0.74920   0.16787   1.000
    O137    O    0.15093   0.70710   0.19103   1.000
    O138    O    0.09217   0.79047   0.13898   1.000
    O139    O    0.06756   0.70698   0.20116   1.000
    C140    C    0.64543   0.49918   0.66784   1.000
    O141    O    0.65783   0.54045   0.63895   1.000
    O142    O    0.68243   0.45696   0.70114   1.000
    O143    O    0.59907   0.45709   0.69102   1.000
    C144    C    0.11565   0.37503   0.91391   1.000
    O145    O    0.09948   0.37504   0.96823   1.000
    O146    O    0.08164   0.37502   0.85338   1.000
    O147    O    0.16510   0.37503   0.86312   1.000
    C148    C    0.85446   0.00084   0.33121   1.000
    O149    O    0.90081   0.04295   0.30852   1.000
    O150    O    0.84210   0.95956   0.36060   1.000
    O151    O    0.81745   0.04307   0.29839   1.000
    C152    C    0.85455   0.50084   0.33220   1.000
    O153    O    0.81755   0.54306   0.29889   1.000
    O154    O    0.90092   0.54293   0.30902   1.000
    O155    O    0.84215   0.45957   0.36109   1.000
    C156    C    0.38431   0.62499   0.08606   1.000
    O157    O    0.40048   0.62498   0.03176   1.000
    O158    O    0.33485   0.62499   0.13689   1.000
    O159    O    0.41831   0.62500   0.14651   1.000
    C160    C    0.89549   0.99918   0.83219   1.000
    O161    O    0.90787   0.04046   0.86107   1.000
    O162    O    0.84914   0.95708   0.80902   1.000
    O163    O    0.93250   0.95696   0.79889   1.000
    C164    C    0.14547   0.75080   0.66783   1.000
    O165    O    0.09912   0.79290   0.69102   1.000
    O166    O    0.18248   0.79302   0.70114   1.000
    O167    O    0.15785   0.70953   0.63894   1.000
    C168    C    0.60457   0.50082   0.16786   1.000
    O169    O    0.65093   0.54292   0.19103   1.000
    O170    O    0.59215   0.45955   0.13899   1.000
    O171    O    0.56756   0.54305   0.20115   1.000
    C172    C    0.85449   0.24922   0.33220   1.000
    O173    O    0.84211   0.29049   0.36109   1.000
    O174    O    0.81748   0.20700   0.29890   1.000
    O175    O    0.90084   0.20712   0.30902   1.000
    C176    C    0.63424   0.62499   0.41387   1.000
    O177    O    0.66827   0.62500   0.35336   1.000
    O178    O    0.58480   0.62499   0.36308   1.000
    O179    O    0.65042   0.62499   0.46821   1.000
    C180    C    0.89541   0.49920   0.83216   1.000
    O181    O    0.84905   0.45710   0.80900   1.000
    O182    O    0.93241   0.45696   0.79888   1.000
    O183    O    0.90783   0.54046   0.86104   1.000
    C184    C    0.38422   0.12507   0.08613   1.000
    O185    O    0.33476   0.12507   0.13692   1.000
    O186    O    0.40040   0.12506   0.03180   1.000
    O187    O    0.41822   0.12507   0.14665   1.000
    C188    C    0.39538   0.25082   0.83216   1.000
    O189    O    0.34902   0.29292   0.80900   1.000
    O190    O    0.43240   0.29304   0.79886   1.000
    O191    O    0.40778   0.20955   0.86105   1.000
    C192    C    0.11573   0.87494   0.91389   1.000
    O193    O    0.09955   0.87495   0.96823   1.000
    O194    O    0.08173   0.87495   0.85338   1.000
    O195    O    0.16519   0.87495   0.86308   1.000
    C196    C    0.14550   0.99918   0.66782   1.000
    O197    O    0.15786   0.04045   0.63893   1.000
    O198    O    0.09915   0.95707   0.69101   1.000
    O199    O    0.18251   0.95695   0.70112   1.000
    C200    C    0.36573   0.37503   0.58616   1.000
    O201    O    0.34955   0.37504   0.53183   1.000
    O202    O    0.33170   0.37502   0.64667   1.000
    O203    O    0.41517   0.37503   0.63696   1.000
    C204    C    0.60450   0.24923   0.16787   1.000
    O205    O    0.65086   0.20713   0.19103   1.000
    O206    O    0.56748   0.20700   0.20115   1.000
    O207    O    0.59211   0.29050   0.13898   1.000
    C208    C    0.61566   0.37503   0.91391   1.000
    O209    O    0.59949   0.37504   0.96824   1.000
    O210    O    0.66511   0.37503   0.86312   1.000
    O211    O    0.58166   0.37502   0.85339   1.000
    C212    C    0.14540   0.25083   0.66784   1.000
    O213    O    0.09905   0.29292   0.69102   1.000
    O214    O    0.18241   0.29305   0.70115   1.000
    O215    O    0.15779   0.20956   0.63895   1.000
    C216    C    0.10449   0.24923   0.16787   1.000
    O217    O    0.09210   0.29050   0.13898   1.000
    O218    O    0.06748   0.20700   0.20115   1.000
    O219    O    0.15084   0.20713   0.19103   1.000
    C220    C    0.35448   0.24922   0.33219   1.000
    O221    O    0.40083   0.20712   0.30901   1.000
    O222    O    0.34210   0.29049   0.36108   1.000
    O223    O    0.31746   0.20700   0.29889   1.000
    C224    C    0.64548   0.75080   0.66783   1.000
    O225    O    0.65786   0.70953   0.63894   1.000
    O226    O    0.59913   0.79290   0.69102   1.000
    O227    O    0.68250   0.79302   0.70114   1.000
    C228    C    0.63416   0.12507   0.41376   1.000
    O229    O    0.58471   0.12506   0.36302   1.000
    O230    O    0.66818   0.12506   0.35330   1.000
    O231    O    0.65035   0.12506   0.46797   1.000
    C232    C    0.89546   0.75079   0.83217   1.000
    O233    O    0.84911   0.79289   0.80901   1.000
    O234    O    0.93248   0.79302   0.79889   1.000
    O235    O    0.90786   0.70952   0.86105   1.000
    C236    C    0.89539   0.25082   0.83215   1.000
    O237    O    0.84904   0.29292   0.80900   1.000
    O238    O    0.93240   0.29304   0.79885   1.000
    O239    O    0.90780   0.20955   0.86105   1.000
    C240    C    0.10447   0.00083   0.16780   1.000
    O241    O    0.06745   0.04306   0.20111   1.000
    O242    O    0.09209   0.95956   0.13894   1.000
    O243    O    0.15082   0.04294   0.19092   1.000
    C244    C    0.39545   0.75079   0.83217   1.000
    O245    O    0.34910   0.79289   0.80901   1.000
    O246    O    0.43248   0.79302   0.79889   1.000
    O247    O    0.40785   0.70952   0.86105   1.000
    C248    C    0.85456   0.74919   0.33217   1.000
    O249    O    0.84217   0.79046   0.36107   1.000
    O250    O    0.90092   0.70709   0.30899   1.000
    O251    O    0.81756   0.70697   0.29887   1.000
    C252    C    0.39540   0.49920   0.83217   1.000
    O253    O    0.43241   0.45696   0.79889   1.000
    O254    O    0.34903   0.45710   0.80901   1.000
    O255    O    0.40782   0.54046   0.86105   1.000
loop_
    _geom_bond_atom_site_label_1
    _geom_bond_atom_site_label_2
    _geom_bond_distance
    _geom_bond_site_symmetry_2
    _ccdc_geom_bond_type
    Zr45   O48       1.40929      .   S
    Zr15   O48       1.40929      .   S
    Zr47   O49       1.40907      .   S
    Zr13   O49       1.40907  1_455   S
    Zr46   O50       1.40906      .   S
    Zr12   O50       1.40906  1_455   S
    Zr44   O51       1.40927      .   S
    Zr14   O51       1.40927      .   S
    Zr0    O52       1.40928      .   S
    Zr32   O52       1.40928      .   S
    Zr1    O53       1.40928      .   S
    Zr33   O53       1.40928      .   S
    Zr3    O54       1.40929      .   S
    Zr35   O54       1.40929      .   S
    Zr2    O55       1.40928      .   S
    Zr34   O55       1.40928      .   S
    Zr42   O56       1.40929      .   S
    Zr10   O56       1.40929      .   S
    Zr40   O57       1.40929      .   S
    Zr8    O57       1.40929      .   S
    Zr43   O58       1.40928      .   S
    Zr11   O58       1.40928      .   S
    Zr41   O59       1.40928      .   S
    Zr9    O59       1.40928      .   S
    Zr5    O60       1.40928      .   S
    Zr39   O60       1.40928      .   S
    Zr7    O61       1.40907  1_655   S
    Zr37   O61       1.40907      .   S
    Zr4    O62       1.40928      .   S
    Zr38   O62       1.40928      .   S
    Zr6    O63       1.40907  1_655   S
    Zr36   O63       1.40907      .   S
    C64    O65       1.24984      .   S
    Zr31   O65       2.43126      .   S
    C64    O66       1.26676      .   S
    Zr19   O66       2.48870      .   S
    C64    O67       1.05776      .   S
    Zr7    O67       2.18408  1_556   S
    C68    O69       1.25537      .   S
    Zr17   O69       2.44615      .   S
    C68    O70       1.25681      .   S
    Zr29   O70       2.45486      .   S
    C68    O71       1.06111      .   S
    Zr0    O71       2.19342      .   S
    C72    O73       1.24943      .   S
    Zr30   O73       2.43086      .   S
    C72    O74       1.05827      .   S
    Zr6    O74       2.18456  1_556   S
    C72    O75       1.26789      .   S
    Zr18   O75       2.48639      .   S
    C76    O77       1.25224      .   S
    Zr16   O77       2.44298      .   S
    C76    O78       1.06610  1_545   S
    Zr1    O78       2.19845      .   S
    C76    O79       1.25232      .   S
    Zr28   O79       2.45072      .   S
    C80    O81       1.26812      .   S
    Zr22   O81       2.48749      .   S
    C80    O82       1.24908      .   S
    Zr24   O82       2.42982  1_455   S
    C80    O83       1.05818      .   S
    Zr2    O83       2.18448      .   S
    C84    O85       1.26817      .   S
    Zr23   O85       2.48720      .   S
    C84    O86       1.05820      .   S
    Zr3    O86       2.18457      .   S
    C84    O87       1.24919      .   S
    Zr25   O87       2.42996  1_455   S
    C88    O89       1.06106      .   S
    Zr15   O89       2.19335      .   S
    C88    O90       1.25527      .   S
    Zr31   O90       2.44580      .   S
    C88    O91       1.25682      .   S
    Zr17   O91       2.45545      .   S
    C92    O93       1.06120  1_565   S
    Zr10   O93       2.19358      .   S
    C92    O94       1.25554      .   S
    Zr27   O94       2.44636      .   S
    C92    O95       1.25690      .   S
    Zr23   O95       2.45530      .   S
    C96    O97       1.06107      .   S
    Zr12   O97       2.19334      .   S
    C96    O98       1.25687      .   S
    Zr19   O98       2.45499  1_655   S
    C96    O99       1.25522      .   S
    Zr29   O99       2.44584      .   S
    C100   O101      1.25534      .   S
    Zr17   O101      2.44591      .   S
    C100   O102      1.06123      .   S
    Zr1    O102      2.19358      .   S
    C100   O103      1.25677      .   S
    Zr29   O103      2.45488      .   S
    C104   O105      1.05827      .   S
    Zr9    O105      2.18456      .   S
    C104   O106      1.24901      .   S
    Zr19   O106      2.42976  1_655   S
    C104   O107      1.26820      .   S
    Zr29   O107      2.48723      .   S
    C108   O109      1.25728      .   S
    Zr16   O109      2.45561      .   S
    C108   O110      1.25504      .   S
    Zr30   O110      2.44663      .   S
    C108   O111      1.06100  1_545   S
    Zr15   O111      2.19335      .   S
    C112   O113      1.25682      .   S
    Zr20   O113      2.45487      .   S
    C112   O114      1.06112      .   S
    Zr9    O114      2.19343      .   S
    C112   O115      1.25537      .   S
    Zr24   O115      2.44617      .   S
    C116   O117      1.06117      .   S
    Zr10   O117      2.19352      .   S
    C116   O118      1.25534      .   S
    Zr26   O118      2.44605      .   S
    C116   O119      1.25686      .   S
    Zr22   O119      2.45499      .   S
    C120   O121      1.24828      .   S
    Zr18   O121      2.42905  1_655   S
    C120   O122      1.05613      .   S
    Zr8    O122      2.18877      .   S
    C120   O123      1.26716      .   S
    Zr28   O123      2.48619      .   S
    C124   O125      1.05820      .   S
    Zr1    O125      2.18457      .   S
    C124   O126      1.24926      .   S
    Zr27   O126      2.43015      .   S
    C124   O127      1.26817      .   S
    Zr21   O127      2.48720      .   S
    C128   O129      1.05839      .   S
    Zr15   O129      2.18476  1_554   S
    C128   O130      1.24968      .   S
    Zr23   O130      2.43052      .   S
    C128   O131      1.26772      .   S
    Zr27   O131      2.48623      .   S
    C132   O133      1.25708      .   S
    Zr27   O133      2.45541      .   S
    C132   O134      1.25540      .   S
    Zr21   O134      2.44601      .   S
    C132   O135      1.06120  1_565   S
    Zr4    O135      2.19353      .   S
    C136   O137      1.25522      .   S
    Zr29   O137      2.44573      .   S
    C136   O138      1.06113      .   S
    Zr13   O138      2.19342      .   S
    C136   O139      1.25691      .   S
    Zr19   O139      2.45508  1_655   S
    C140   O141      1.06112      .   S
    Zr11   O141      2.19343      .   S
    C140   O142      1.25682      .   S
    Zr22   O142      2.45487      .   S
    C140   O143      1.25537      .   S
    Zr26   O143      2.44616      .   S
    C144   O145      1.05816      .   S
    Zr12   O145      2.18475  1_554   S
    C144   O146      1.26804      .   S
    Zr24   O146      2.48629      .   S
    C144   O147      1.24934      .   S
    Zr20   O147      2.43076      .   S
    C148   O149      1.25224      .   S
    Zr18   O149      2.44298      .   S
    C148   O150      1.06610  1_545   S
    Zr3    O150      2.19845      .   S
    C148   O151      1.25232      .   S
    Zr30   O151      2.45072      .   S
    C152   O153      1.25682      .   S
    Zr31   O153      2.45484      .   S
    C152   O154      1.25537      .   S
    Zr19   O154      2.44615      .   S
    C152   O155      1.06112      .   S
    Zr2    O155      2.19343      .   S
    C156   O157      1.05780      .   S
    Zr5    O157      2.18421  1_556   S
    C156   O158      1.24986      .   S
    Zr29   O158      2.43128      .   S
    C156   O159      1.26674      .   S
    Zr17   O159      2.48869      .   S
    C160   O161      1.06121  1_565   S
    Zr6    O161      2.19353      .   S
    C160   O162      1.25538      .   S
    Zr23   O162      2.44599      .   S
    C160   O163      1.25704      .   S
    Zr25   O163      2.45527  1_455   S
    C164   O165      1.25533      .   S
    Zr25   O165      2.44603      .   S
    C164   O166      1.25697      .   S
    Zr21   O166      2.45513      .   S
    C164   O167      1.06121      .   S
    Zr9    O167      2.19332      .   S
    C168   O169      1.25528      .   S
    Zr31   O169      2.44589      .   S
    C168   O170      1.06102      .   S
    Zr14   O170      2.19329      .   S
    C168   O171      1.25696      .   S
    Zr17   O171      2.45519      .   S
    C172   O173      1.06114      .   S
    Zr2    O173      2.19345      .   S
    C172   O174      1.25695      .   S
    Zr30   O174      2.45519      .   S
    C172   O175      1.25530      .   S
    Zr18   O175      2.44598      .   S
    C176   O177      1.26820      .   S
    Zr31   O177      2.48723      .   S
    C176   O178      1.24908      .   S
    Zr17   O178      2.42995      .   S
    C176   O179      1.05827      .   S
    Zr11   O179      2.18455      .   S
    C180   O181      1.25521      .   S
    Zr22   O181      2.44579      .   S
    C180   O182      1.25684      .   S
    Zr24   O182      2.45495  1_455   S
    C180   O183      1.06113      .   S
    Zr7    O183      2.19332      .   S
    C184   O185      1.24945      .   S
    Zr28   O185      2.43088      .   S
    C184   O186      1.05826      .   S
    Zr4    O186      2.18455  1_556   S
    C184   O187      1.26788      .   S
    Zr16   O187      2.48637      .   S
    C188   O189      1.25519      .   S
    Zr20   O189      2.44570      .   S
    C188   O190      1.25706      .   S
    Zr26   O190      2.45508      .   S
    C188   O191      1.06116      .   S
    Zr4    O191      2.19348      .   S
    C192   O193      1.05839      .   S
    Zr13   O193      2.18477  1_554   S
    C192   O194      1.26773      .   S
    Zr25   O194      2.48624      .   S
    C192   O195      1.24966      .   S
    Zr21   O195      2.43050      .   S
    C196   O197      1.06120  1_565   S
    Zr8    O197      2.19358      .   S
    C196   O198      1.25554      .   S
    Zr25   O198      2.44637      .   S
    C196   O199      1.25690      .   S
    Zr21   O199      2.45530      .   S
    C200   O201      1.05818      .   S
    Zr0    O201      2.18447      .   S
    C200   O202      1.26811      .   S
    Zr20   O202      2.48750      .   S
    C200   O203      1.24915      .   S
    Zr26   O203      2.43001      .   S
    C204   O205      1.25518      .   S
    Zr30   O205      2.44563      .   S
    C204   O206      1.25701      .   S
    Zr16   O206      2.45543      .   S
    C204   O207      1.06111      .   S
    Zr14   O207      2.19336      .   S
    C208   O209      1.05810      .   S
    Zr14   O209      2.18469  1_554   S
    C208   O210      1.24940      .   S
    Zr22   O210      2.43083      .   S
    C208   O211      1.26791      .   S
    Zr26   O211      2.48649      .   S
    C212   O213      1.25534      .   S
    Zr24   O213      2.44605      .   S
    C212   O214      1.25686      .   S
    Zr20   O214      2.45500      .   S
    C212   O215      1.06117      .   S
    Zr8    O215      2.19352      .   S
    C216   O217      1.06112      .   S
    Zr12   O217      2.19338      .   S
    C216   O218      1.25698      .   S
    Zr18   O218      2.45529  1_655   S
    C216   O219      1.25516      .   S
    Zr28   O219      2.44561      .   S
    C220   O221      1.25528      .   S
    Zr16   O221      2.44597      .   S
    C220   O222      1.06116      .   S
    Zr0    O222      2.19347      .   S
    C220   O223      1.25693      .   S
    Zr28   O223      2.45518      .   S
    C224   O225      1.06121      .   S
    Zr11   O225      2.19332      .   S
    C224   O226      1.25533      .   S
    Zr27   O226      2.44603      .   S
    C224   O227      1.25696      .   S
    Zr23   O227      2.45514      .   S
    C228   O229      1.24835      .   S
    Zr16   O229      2.42925      .   S
    C228   O230      1.26716      .   S
    Zr30   O230      2.48619      .   S
    C228   O231      1.05613      .   S
    Zr10   O231      2.18877      .   S
    C232   O233      1.25517      .   S
    Zr23   O233      2.44565      .   S
    C232   O234      1.25697      .   S
    Zr25   O234      2.45526  1_455   S
    C232   O235      1.06109      .   S
    Zr7    O235      2.19334      .   S
    C236   O237      1.25516      .   S
    Zr22   O237      2.44566      .   S
    C236   O238      1.25700      .   S
    Zr24   O238      2.45491  1_455   S
    C236   O239      1.06119      .   S
    Zr6    O239      2.19351      .   S
    C240   O241      1.25715      .   S
    Zr18   O241      2.45564  1_655   S
    C240   O242      1.06097  1_545   S
    Zr13   O242      2.19331      .   S
    C240   O243      1.25505      .   S
    Zr28   O243      2.44664      .   S
    C244   O245      1.25519      .   S
    Zr21   O245      2.44566      .   S
    C244   O246      1.25701      .   S
    Zr27   O246      2.45540      .   S
    C244   O247      1.06105      .   S
    Zr5    O247      2.19325      .   S
    C248   O249      1.06123      .   S
    Zr3    O249      2.19358      .   S
    C248   O250      1.25534      .   S
    Zr19   O250      2.44591      .   S
    C248   O251      1.25677      .   S
    Zr31   O251      2.45488      .   S
    C252   O253      1.25692      .   S
    Zr26   O253      2.45514      .   S
    C252   O254      1.25526      .   S
    Zr20   O254      2.44584      .   S
    C252   O255      1.06105      .   S
    Zr5    O255      2.19320      .   S
