# CIF file generated by openbabel 2.4.90, see http://openbabel.sf.net
data_I
_chemical_name_common ''
_cell_length_a 16.201
_cell_length_b 21.517
_cell_length_c 18.871
_cell_angle_alpha 90
_cell_angle_beta 90.009
_cell_angle_gamma 90
_space_group_name_H-M_alt 'P 1'
_space_group_name_Hall 'P 1'
loop_
    _symmetry_equiv_pos_as_xyz
    x,y,z
loop_
    _atom_site_label
    _atom_site_type_symbol
    _atom_site_fract_x
    _atom_site_fract_y
    _atom_site_fract_z
    _atom_site_occupancy
    Zr0     Zr   0.31197   0.37504   0.42065   1.000
    Zr1     Zr   0.31199   0.87499   0.42065   1.000
    Zr2     Zr   0.81198   0.37504   0.42065   1.000
    Zr3     Zr   0.81201   0.87499   0.42065   1.000
    Zr4     Zr   0.43799   0.12502   0.92063   1.000
    Zr5     Zr   0.43804   0.62499   0.92060   1.000
    Zr6     Zr   0.93800   0.12502   0.92063   1.000
    Zr7     Zr   0.93805   0.62499   0.92061   1.000
    Zr8     Zr   0.18795   0.12502   0.57938   1.000
    Zr9     Zr   0.18799   0.62498   0.57939   1.000
    Zr10    Zr   0.68797   0.12502   0.57938   1.000
    Zr11    Zr   0.68800   0.62498   0.57939   1.000
    Zr12    Zr   0.06192   0.37503   0.07942   1.000
    Zr13    Zr   0.06196   0.87499   0.07941   1.000
    Zr14    Zr   0.56193   0.37503   0.07942   1.000
    Zr15    Zr   0.56197   0.87499   0.07941   1.000
    Zr16    Zr   0.49041   0.12503   0.26293   1.000
    Zr17    Zr   0.49051   0.62501   0.26293   1.000
    Zr18    Zr   0.99042   0.12503   0.26293   1.000
    Zr19    Zr   0.99052   0.62501   0.26293   1.000
    Zr20    Zr   0.25943   0.37501   0.76296   1.000
    Zr21    Zr   0.25952   0.87498   0.76295   1.000
    Zr22    Zr   0.75944   0.37501   0.76296   1.000
    Zr23    Zr   0.75953   0.87498   0.76295   1.000
    Zr24    Zr   0.00945   0.37500   0.73711   1.000
    Zr25    Zr   0.00954   0.87498   0.73711   1.000
    Zr26    Zr   0.50946   0.37500   0.73711   1.000
    Zr27    Zr   0.50955   0.87498   0.73711   1.000
    Zr28    Zr   0.24042   0.12504   0.23708   1.000
    Zr29    Zr   0.24052   0.62501   0.23708   1.000
    Zr30    Zr   0.74044   0.12504   0.23708   1.000
    Zr31    Zr   0.74054   0.62501   0.23708   1.000
    Zr32    Zr   0.47870   0.48090   0.36693   1.000
    Zr33    Zr   0.47861   0.98099   0.36000   1.000
    Zr34    Zr   0.97871   0.48090   0.36693   1.000
    Zr35    Zr   0.97862   0.98099   0.36000   1.000
    Zr36    Zr   0.22395   0.48311   0.32372   1.000
    Zr37    Zr   0.22388   0.98302   0.32368   1.000
    Zr38    Zr   0.72396   0.48311   0.32372   1.000
    Zr39    Zr   0.72389   0.98302   0.32368   1.000
    Zr40    Zr   0.27133   0.01905   0.86695   1.000
    Zr41    Zr   0.27125   0.51916   0.86687   1.000
    Zr42    Zr   0.77134   0.01905   0.86695   1.000
    Zr43    Zr   0.77127   0.51916   0.86680   1.000
    Zr44    Zr   0.02603   0.01699   0.82367   1.000
    Zr45    Zr   0.02597   0.51691   0.82368   1.000
    Zr46    Zr   0.52604   0.01699   0.82367   1.000
    Zr47    Zr   0.52599   0.51691   0.82368   1.000
    Zr48    Zr   0.02125   0.23095   0.63306   1.000
    Zr49    Zr   0.02129   0.73088   0.63313   1.000
    Zr50    Zr   0.52126   0.23095   0.63306   1.000
    Zr51    Zr   0.52131   0.73088   0.63313   1.000
    Zr52    Zr   0.27597   0.23305   0.67638   1.000
    Zr53    Zr   0.27605   0.73305   0.67631   1.000
    Zr54    Zr   0.77599   0.23305   0.67638   1.000
    Zr55    Zr   0.77607   0.73305   0.67631   1.000
    Zr56    Zr   0.22865   0.26916   0.13318   1.000
    Zr57    Zr   0.22872   0.76910   0.13311   1.000
    Zr58    Zr   0.72866   0.26916   0.13318   1.000
    Zr59    Zr   0.72873   0.76910   0.13311   1.000
    Zr60    Zr   0.47392   0.26697   0.17634   1.000
    Zr61    Zr   0.47402   0.76698   0.17641   1.000
    Zr62    Zr   0.97394   0.26697   0.17634   1.000
    Zr63    Zr   0.97403   0.76698   0.17641   1.000
    Zr64    Zr   0.02134   0.01903   0.63304   1.000
    Zr65    Zr   0.02125   0.51912   0.63312   1.000
    Zr66    Zr   0.52135   0.01903   0.63304   1.000
    Zr67    Zr   0.52127   0.51912   0.63312   1.000
    Zr68    Zr   0.27607   0.01699   0.67635   1.000
    Zr69    Zr   0.27601   0.51690   0.67632   1.000
    Zr70    Zr   0.77608   0.01699   0.67635   1.000
    Zr71    Zr   0.77602   0.51690   0.67632   1.000
    Zr72    Zr   0.22870   0.48086   0.13318   1.000
    Zr73    Zr   0.22862   0.98097   0.13309   1.000
    Zr74    Zr   0.72871   0.48086   0.13310   1.000
    Zr75    Zr   0.72863   0.98097   0.13309   1.000
    Zr76    Zr   0.47398   0.48311   0.17636   1.000
    Zr77    Zr   0.47392   0.98302   0.17637   1.000
    Zr78    Zr   0.97399   0.48311   0.17636   1.000
    Zr79    Zr   0.97393   0.98302   0.17637   1.000
    Zr80    Zr   0.47865   0.26913   0.36690   1.000
    Zr81    Zr   0.47870   0.76907   0.36690   1.000
    Zr82    Zr   0.97866   0.26913   0.36691   1.000
    Zr83    Zr   0.97871   0.76907   0.36690   1.000
    Zr84    Zr   0.22390   0.26697   0.32370   1.000
    Zr85    Zr   0.22398   0.76697   0.32365   1.000
    Zr86    Zr   0.72391   0.26697   0.32372   1.000
    Zr87    Zr   0.72399   0.76697   0.32365   1.000
    Zr88    Zr   0.27123   0.23093   0.86694   1.000
    Zr89    Zr   0.27129   0.73085   0.86686   1.000
    Zr90    Zr   0.77125   0.23093   0.86690   1.000
    Zr91    Zr   0.77131   0.73085   0.86686   1.000
    Zr92    Zr   0.02593   0.23303   0.82363   1.000
    Zr93    Zr   0.02602   0.73305   0.82370   1.000
    Zr94    Zr   0.52594   0.23303   0.82363   1.000
    Zr95    Zr   0.52604   0.73305   0.82370   1.000
    Zr96    Zr   0.48856   0.37507   0.54168   1.000
    Zr97    Zr   0.48862   0.87494   0.54160   1.000
    Zr98    Zr   0.98857   0.37507   0.54168   1.000
    Zr99    Zr   0.98863   0.87495   0.54160   1.000
    Zr100   Zr   0.23283   0.37500   0.58071   1.000
    Zr101   Zr   0.23290   0.87495   0.58073   1.000
    Zr102   Zr   0.73285   0.37500   0.58071   1.000
    Zr103   Zr   0.73291   0.87495   0.58073   1.000
    Zr104   Zr   0.26140   0.12507   0.04159   1.000
    Zr105   Zr   0.26148   0.62495   0.04160   1.000
    Zr106   Zr   0.76141   0.12507   0.04159   1.000
    Zr107   Zr   0.76149   0.62495   0.04160   1.000
    Zr108   Zr   0.01711   0.12507   0.08074   1.000
    Zr109   Zr   0.01719   0.62502   0.08071   1.000
    Zr110   Zr   0.51712   0.12507   0.08074   1.000
    Zr111   Zr   0.51720   0.62502   0.08071   1.000
    Zr112   Zr   0.01133   0.12507   0.45838   1.000
    Zr113   Zr   0.01140   0.62495   0.45836   1.000
    Zr114   Zr   0.51134   0.12507   0.45838   1.000
    Zr115   Zr   0.51141   0.62495   0.45836   1.000
    Zr116   Zr   0.26705   0.12506   0.41930   1.000
    Zr117   Zr   0.26712   0.62502   0.41930   1.000
    Zr118   Zr   0.76706   0.12506   0.41930   1.000
    Zr119   Zr   0.76714   0.62502   0.41930   1.000
    Zr120   Zr   0.23848   0.37507   0.95844   1.000
    Zr121   Zr   0.23855   0.87494   0.95845   1.000
    Zr122   Zr   0.73849   0.37507   0.95844   1.000
    Zr123   Zr   0.73856   0.87494   0.95845   1.000
    Zr124   Zr   0.48276   0.37500   0.91933   1.000
    Zr125   Zr   0.48284   0.87494   0.91930   1.000
    Zr126   Zr   0.98278   0.37500   0.91933   1.000
    Zr127   Zr   0.98285   0.87494   0.91930   1.000
    Zr128   Zr   0.41811   0.49430   0.34760   1.000
    Zr129   Zr   0.41801   0.99435   0.34764   1.000
    Zr130   Zr   0.91812   0.49430   0.34760   1.000
    Zr131   Zr   0.91802   0.99435   0.34764   1.000
    Zr132   Zr   0.28892   0.49539   0.32501   1.000
    Zr133   Zr   0.28883   0.99534   0.32499   1.000
    Zr134   Zr   0.78893   0.49539   0.32501   1.000
    Zr135   Zr   0.78885   0.99534   0.32499   1.000
    Zr136   Zr   0.33192   0.00568   0.84762   1.000
    Zr137   Zr   0.33184   0.50574   0.84756   1.000
    Zr138   Zr   0.83193   0.00568   0.84762   1.000
    Zr139   Zr   0.83185   0.50574   0.84756   1.000
    Zr140   Zr   0.46109   0.00468   0.82498   1.000
    Zr141   Zr   0.46102   0.50464   0.82498   1.000
    Zr142   Zr   0.96110   0.00468   0.82498   1.000
    Zr143   Zr   0.96103   0.50464   0.82498   1.000
    Zr144   Zr   0.08184   0.24432   0.65241   1.000
    Zr145   Zr   0.08189   0.74427   0.65245   1.000
    Zr146   Zr   0.58185   0.24432   0.65241   1.000
    Zr147   Zr   0.58191   0.74427   0.65245   1.000
    Zr148   Zr   0.21102   0.24535   0.67506   1.000
    Zr149   Zr   0.21109   0.74534   0.67502   1.000
    Zr150   Zr   0.71103   0.24535   0.67506   1.000
    Zr151   Zr   0.71110   0.74534   0.67502   1.000
    Zr152   Zr   0.16806   0.25576   0.15247   1.000
    Zr153   Zr   0.16813   0.75571   0.15244   1.000
    Zr154   Zr   0.66807   0.25576   0.15247   1.000
    Zr155   Zr   0.66814   0.75571   0.15244   1.000
    Zr156   Zr   0.03887   0.25469   0.17505   1.000
    Zr157   Zr   0.03896   0.75468   0.17509   1.000
    Zr158   Zr   0.53889   0.25469   0.17505   1.000
    Zr159   Zr   0.53898   0.75468   0.17509   1.000
    Zr160   Zr   0.08193   0.00567   0.65239   1.000
    Zr161   Zr   0.08184   0.50572   0.65244   1.000
    Zr162   Zr   0.58195   0.00567   0.65239   1.000
    Zr163   Zr   0.58186   0.50572   0.65244   1.000
    Zr164   Zr   0.21111   0.00468   0.67504   1.000
    Zr165   Zr   0.21104   0.50463   0.67503   1.000
    Zr166   Zr   0.71113   0.00468   0.67504   1.000
    Zr167   Zr   0.71105   0.50463   0.67503   1.000
    Zr168   Zr   0.16811   0.49428   0.15248   1.000
    Zr169   Zr   0.16802   0.99434   0.15242   1.000
    Zr170   Zr   0.66813   0.49428   0.15248   1.000
    Zr171   Zr   0.66804   0.99434   0.15242   1.000
    Zr172   Zr   0.03893   0.49538   0.17506   1.000
    Zr173   Zr   0.03886   0.99534   0.17506   1.000
    Zr174   Zr   0.53895   0.49538   0.17506   1.000
    Zr175   Zr   0.53887   0.99534   0.17506   1.000
    Zr176   Zr   0.41805   0.25574   0.34760   1.000
    Zr177   Zr   0.41811   0.75569   0.34763   1.000
    Zr178   Zr   0.91806   0.25574   0.34760   1.000
    Zr179   Zr   0.91813   0.75569   0.34763   1.000
    Zr180   Zr   0.28886   0.25469   0.32501   1.000
    Zr181   Zr   0.28894   0.75467   0.32497   1.000
    Zr182   Zr   0.78887   0.25469   0.32501   1.000
    Zr183   Zr   0.78895   0.75467   0.32497   1.000
    Zr184   Zr   0.33182   0.24431   0.84760   1.000
    Zr185   Zr   0.33189   0.74426   0.84756   1.000
    Zr186   Zr   0.83183   0.24431   0.84760   1.000
    Zr187   Zr   0.83190   0.74426   0.84756   1.000
    Zr188   Zr   0.46099   0.24534   0.82495   1.000
    Zr189   Zr   0.46107   0.74533   0.82499   1.000
    Zr190   Zr   0.96100   0.24533   0.82495   1.000
    Zr191   Zr   0.96108   0.74533   0.82499   1.000
    Zr192   Zr   0.42901   0.37505   0.56817   1.000
    Zr193   Zr   0.42907   0.87495   0.56816   1.000
    Zr194   Zr   0.92902   0.37505   0.56817   1.000
    Zr195   Zr   0.92909   0.87495   0.56816   1.000
    Zr196   Zr   0.29922   0.37502   0.58839   1.000
    Zr197   Zr   0.29930   0.87495   0.58840   1.000
    Zr198   Zr   0.79924   0.37502   0.58839   1.000
    Zr199   Zr   0.79931   0.87495   0.58840   1.000
    Zr200   Zr   0.32094   0.12507   0.06811   1.000
    Zr201   Zr   0.32103   0.62497   0.06811   1.000
    Zr202   Zr   0.82096   0.12507   0.06811   1.000
    Zr203   Zr   0.82104   0.62497   0.06811   1.000
    Zr204   Zr   0.45072   0.12508   0.08839   1.000
    Zr205   Zr   0.45081   0.62500   0.08837   1.000
    Zr206   Zr   0.95074   0.12507   0.08839   1.000
    Zr207   Zr   0.95082   0.62500   0.08837   1.000
    Zr208   Zr   0.07087   0.12507   0.43180   1.000
    Zr209   Zr   0.07095   0.62497   0.43187   1.000
    Zr210   Zr   0.57089   0.12507   0.43180   1.000
    Zr211   Zr   0.57096   0.62497   0.43187   1.000
    Zr212   Zr   0.20065   0.12507   0.41160   1.000
    Zr213   Zr   0.20073   0.62500   0.41165   1.000
    Zr214   Zr   0.70066   0.12507   0.41160   1.000
    Zr215   Zr   0.70074   0.62500   0.41165   1.000
    Zr216   Zr   0.17893   0.37505   0.93193   1.000
    Zr217   Zr   0.17900   0.87494   0.93190   1.000
    Zr218   Zr   0.67894   0.37505   0.93193   1.000
    Zr219   Zr   0.67902   0.87494   0.93190   1.000
    Zr220   Zr   0.04914   0.37502   0.91167   1.000
    Zr221   Zr   0.04922   0.87494   0.91165   1.000
    Zr222   Zr   0.54916   0.37502   0.91167   1.000
    Zr223   Zr   0.54923   0.87494   0.91165   1.000
    Zr224   Zr   0.13802   0.37503   0.42316   1.000
    Zr225   Zr   0.13804   0.87497   0.42317   1.000
    Zr226   Zr   0.63803   0.37503   0.42316   1.000
    Zr227   Zr   0.63806   0.87497   0.42317   1.000
    Zr228   Zr   0.11193   0.12504   0.92301   1.000
    Zr229   Zr   0.11198   0.62499   0.92299   1.000
    Zr230   Zr   0.61194   0.12504   0.92301   1.000
    Zr231   Zr   0.61199   0.62499   0.92299   1.000
    Zr232   Zr   0.36190   0.12505   0.57686   1.000
    Zr233   Zr   0.36194   0.62499   0.57688   1.000
    Zr234   Zr   0.86192   0.12505   0.57686   1.000
    Zr235   Zr   0.86195   0.62499   0.57688   1.000
    Zr236   Zr   0.38798   0.37503   0.07705   1.000
    Zr237   Zr   0.38802   0.87497   0.07703   1.000
    Zr238   Zr   0.88799   0.37503   0.07705   1.000
    Zr239   Zr   0.88803   0.87497   0.07703   1.000
    Zr240   Zr   0.34752   0.46157   0.35930   1.000
    Zr241   Zr   0.34746   0.96157   0.35932   1.000
    Zr242   Zr   0.84753   0.46157   0.35930   1.000
    Zr243   Zr   0.84747   0.96157   0.35932   1.000
    Zr244   Zr   0.40389   0.04507   0.30875   1.000
    Zr245   Zr   0.40402   0.54503   0.30874   1.000
    Zr246   Zr   0.90391   0.04507   0.30875   1.000
    Zr247   Zr   0.90404   0.54503   0.30874   1.000
    Zr248   Zr   0.32043   0.04554   0.29408   1.000
    Zr249   Zr   0.32055   0.54556   0.29411   1.000
    Zr250   Zr   0.82044   0.04554   0.29408   1.000
    Zr251   Zr   0.82057   0.54556   0.29410   1.000
    Zr252   Zr   0.40248   0.03846   0.85929   1.000
    Zr253   Zr   0.40243   0.53847   0.85925   1.000
    Zr254   Zr   0.90249   0.03846   0.85929   1.000
    Zr255   Zr   0.90244   0.53847   0.85925   1.000
    Zr256   Zr   0.34591   0.45500   0.80873   1.000
    Zr257   Zr   0.34602   0.95495   0.80874   1.000
    Zr258   Zr   0.84592   0.45500   0.80873   1.000
    Zr259   Zr   0.84603   0.95495   0.80874   1.000
    Zr260   Zr   0.42937   0.45446   0.79410   1.000
    Zr261   Zr   0.42948   0.95447   0.79408   1.000
    Zr262   Zr   0.92939   0.45445   0.79410   1.000
    Zr263   Zr   0.92950   0.95447   0.79408   1.000
    Zr264   Zr   0.15241   0.21157   0.64073   1.000
    Zr265   Zr   0.15247   0.71153   0.64070   1.000
    Zr266   Zr   0.65242   0.21157   0.64073   1.000
    Zr267   Zr   0.65248   0.71153   0.64070   1.000
    Zr268   Zr   0.09594   0.29503   0.69130   1.000
    Zr269   Zr   0.09600   0.79500   0.69130   1.000
    Zr270   Zr   0.59595   0.29503   0.69130   1.000
    Zr271   Zr   0.59602   0.79500   0.69130   1.000
    Zr272   Zr   0.17940   0.29552   0.70597   1.000
    Zr273   Zr   0.17948   0.79552   0.70593   1.000
    Zr274   Zr   0.67941   0.29552   0.70597   1.000
    Zr275   Zr   0.67949   0.79552   0.70593   1.000
    Zr276   Zr   0.09748   0.28850   0.14078   1.000
    Zr277   Zr   0.09756   0.78847   0.14078   1.000
    Zr278   Zr   0.59749   0.28850   0.14078   1.000
    Zr279   Zr   0.59757   0.78847   0.14078   1.000
    Zr280   Zr   0.15396   0.20502   0.19131   1.000
    Zr281   Zr   0.15404   0.70499   0.19131   1.000
    Zr282   Zr   0.65398   0.20502   0.19131   1.000
    Zr283   Zr   0.65406   0.70499   0.19130   1.000
    Zr284   Zr   0.07049   0.20450   0.20593   1.000
    Zr285   Zr   0.07059   0.70449   0.20598   1.000
    Zr286   Zr   0.57051   0.20450   0.20593   1.000
    Zr287   Zr   0.57060   0.70449   0.20590   1.000
    Zr288   Zr   0.15249   0.03844   0.64071   1.000
    Zr289   Zr   0.15243   0.53845   0.64074   1.000
    Zr290   Zr   0.65250   0.03844   0.64071   1.000
    Zr291   Zr   0.65245   0.53845   0.64074   1.000
    Zr292   Zr   0.09593   0.45499   0.69130   1.000
    Zr293   Zr   0.09605   0.95495   0.69129   1.000
    Zr294   Zr   0.59594   0.45499   0.69130   1.000
    Zr295   Zr   0.59606   0.95495   0.69129   1.000
    Zr296   Zr   0.17940   0.45446   0.70593   1.000
    Zr297   Zr   0.17952   0.95448   0.70590   1.000
    Zr298   Zr   0.67942   0.45446   0.70593   1.000
    Zr299   Zr   0.67953   0.95448   0.70590   1.000
    Zr300   Zr   0.09752   0.46154   0.14080   1.000
    Zr301   Zr   0.09747   0.96156   0.14075   1.000
    Zr302   Zr   0.59754   0.46154   0.14080   1.000
    Zr303   Zr   0.59748   0.96156   0.14075   1.000
    Zr304   Zr   0.15392   0.04507   0.19100   1.000
    Zr305   Zr   0.15405   0.54502   0.19130   1.000
    Zr306   Zr   0.65393   0.04507   0.19100   1.000
    Zr307   Zr   0.65406   0.54502   0.19130   1.000
    Zr308   Zr   0.07046   0.04555   0.20590   1.000
    Zr309   Zr   0.07058   0.54556   0.20594   1.000
    Zr310   Zr   0.57047   0.04555   0.20596   1.000
    Zr311   Zr   0.57059   0.54556   0.20594   1.000
    Zr312   Zr   0.34748   0.28849   0.35930   1.000
    Zr313   Zr   0.34754   0.78845   0.35930   1.000
    Zr314   Zr   0.84749   0.28849   0.35930   1.000
    Zr315   Zr   0.84756   0.78845   0.35930   1.000
    Zr316   Zr   0.40394   0.20502   0.30874   1.000
    Zr317   Zr   0.40402   0.70498   0.30870   1.000
    Zr318   Zr   0.90395   0.20502   0.30874   1.000
    Zr319   Zr   0.90403   0.70498   0.30870   1.000
    Zr320   Zr   0.32047   0.20450   0.29411   1.000
    Zr321   Zr   0.32056   0.70449   0.29406   1.000
    Zr322   Zr   0.82048   0.20450   0.29411   1.000
    Zr323   Zr   0.82057   0.70449   0.29406   1.000
    Zr324   Zr   0.40239   0.21154   0.85926   1.000
    Zr325   Zr   0.40247   0.71151   0.85925   1.000
    Zr326   Zr   0.90240   0.21154   0.85926   1.000
    Zr327   Zr   0.90248   0.71151   0.85925   1.000
    Zr328   Zr   0.34591   0.29503   0.80874   1.000
    Zr329   Zr   0.34598   0.79500   0.80873   1.000
    Zr330   Zr   0.84592   0.29503   0.80874   1.000
    Zr331   Zr   0.84599   0.79500   0.80873   1.000
    Zr332   Zr   0.42937   0.29553   0.79400   1.000
    Zr333   Zr   0.42945   0.79553   0.79411   1.000
    Zr334   Zr   0.92938   0.29553   0.79400   1.000
    Zr335   Zr   0.92946   0.79553   0.79411   1.000
    Zr336   Zr   0.41976   0.37504   0.63840   1.000
    Zr337   Zr   0.41984   0.87494   0.63840   1.000
    Zr338   Zr   0.91977   0.37504   0.63840   1.000
    Zr339   Zr   0.91986   0.87494   0.63840   1.000
    Zr340   Zr   0.33591   0.37502   0.65140   1.000
    Zr341   Zr   0.33600   0.87494   0.65143   1.000
    Zr342   Zr   0.83592   0.37502   0.65140   1.000
    Zr343   Zr   0.83601   0.87494   0.65143   1.000
    Zr344   Zr   0.35479   0.37504   0.53434   1.000
    Zr345   Zr   0.35485   0.87495   0.53434   1.000
    Zr346   Zr   0.85480   0.37504   0.53434   1.000
    Zr347   Zr   0.85486   0.87495   0.53434   1.000
    Zr348   Zr   0.33017   0.12508   0.13835   1.000
    Zr349   Zr   0.33027   0.62498   0.13835   1.000
    Zr350   Zr   0.83019   0.12508   0.13835   1.000
    Zr351   Zr   0.83028   0.62498   0.13835   1.000
    Zr352   Zr   0.41402   0.12508   0.15141   1.000
    Zr353   Zr   0.41412   0.62500   0.15100   1.000
    Zr354   Zr   0.91403   0.12508   0.15141   1.000
    Zr355   Zr   0.91414   0.62500   0.15100   1.000
    Zr356   Zr   0.39517   0.12507   0.03431   1.000
    Zr357   Zr   0.39525   0.62498   0.03430   1.000
    Zr358   Zr   0.89519   0.12507   0.03431   1.000
    Zr359   Zr   0.89526   0.62498   0.03430   1.000
    Zr360   Zr   0.08011   0.12507   0.36164   1.000
    Zr361   Zr   0.08020   0.62498   0.36164   1.000
    Zr362   Zr   0.58012   0.12507   0.36164   1.000
    Zr363   Zr   0.58021   0.62498   0.36164   1.000
    Zr364   Zr   0.16395   0.12507   0.34860   1.000
    Zr365   Zr   0.16405   0.62500   0.34860   1.000
    Zr366   Zr   0.66397   0.12507   0.34860   1.000
    Zr367   Zr   0.66406   0.62500   0.34860   1.000
    Zr368   Zr   0.14510   0.12506   0.46500   1.000
    Zr369   Zr   0.14517   0.62498   0.46570   1.000
    Zr370   Zr   0.64512   0.12506   0.46500   1.000
    Zr371   Zr   0.64518   0.62498   0.46570   1.000
    Zr372   Zr   0.16968   0.37503   0.86169   1.000
    Zr373   Zr   0.16977   0.87494   0.86160   1.000
    Zr374   Zr   0.66969   0.37503   0.86169   1.000
    Zr375   Zr   0.66978   0.87494   0.86160   1.000
    Zr376   Zr   0.08583   0.37502   0.84860   1.000
    Zr377   Zr   0.08592   0.87494   0.84863   1.000
    Zr378   Zr   0.58584   0.37502   0.84864   1.000
    Zr379   Zr   0.58594   0.87494   0.84863   1.000
    Zr380   Zr   0.10471   0.37504   0.96570   1.000
    Zr381   Zr   0.10477   0.87494   0.96572   1.000
    Zr382   Zr   0.60472   0.37504   0.96570   1.000
    Zr383   Zr   0.60478   0.87494   0.96572   1.000
    O384    O    0.35814   0.62497   0.05120   1.000
    O385    O    0.42303   0.62499   0.06133   1.000
    O386    O    0.41664   0.62498   0.97745   1.000
    O387    O    0.85815   0.62497   0.05120   1.000
    O388    O    0.92304   0.62499   0.06133   1.000
    O389    O    0.91666   0.62498   0.97745   1.000
    O390    O    0.35806   0.12507   0.05121   1.000
    O391    O    0.42295   0.12507   0.06135   1.000
    O392    O    0.41658   0.12505   0.97747   1.000
    O393    O    0.85807   0.12507   0.05121   1.000
    O394    O    0.92296   0.12507   0.06135   1.000
    O395    O    0.91659   0.12505   0.97747   1.000
    O396    O    0.29117   0.12507   0.05485   1.000
    O397    O    0.79118   0.12507   0.05485   1.000
    O398    O    0.29125   0.62496   0.05486   1.000
    O399    O    0.79126   0.62496   0.05486   1.000
    O400    O    0.82557   0.12507   0.10323   1.000
    O401    O    0.32565   0.62498   0.10323   1.000
    O402    O    0.32556   0.12507   0.10323   1.000
    O403    O    0.82566   0.62498   0.10323   1.000
    O404    O    0.47500   0.87498   0.07822   1.000
    O405    O    0.97500   0.87498   0.07822   1.000
    O406    O    0.97495   0.37503   0.07823   1.000
    O407    O    0.47495   0.37503   0.07823   1.000
    O408    O    0.07971   0.91828   0.11008   1.000
    O409    O    0.07976   0.83173   0.11009   1.000
    O410    O    0.08337   0.87497   0.02256   1.000
    O411    O    0.57973   0.91828   0.11008   1.000
    O412    O    0.57977   0.83173   0.11009   1.000
    O413    O    0.58338   0.87497   0.02256   1.000
    O414    O    0.07970   0.33177   0.11010   1.000
    O415    O    0.07972   0.41829   0.11011   1.000
    O416    O    0.08331   0.37504   0.02256   1.000
    O417    O    0.57971   0.33177   0.11010   1.000
    O418    O    0.57973   0.41829   0.11011   1.000
    O419    O    0.58332   0.37504   0.02256   1.000
    O420    O    0.48401   0.62501   0.08454   1.000
    O421    O    0.98401   0.62501   0.08454   1.000
    O422    O    0.98392   0.12507   0.08456   1.000
    O423    O    0.48392   0.12508   0.08456   1.000
    O424    O    0.93248   0.62500   0.11968   1.000
    O425    O    0.43247   0.62500   0.11968   1.000
    O426    O    0.93239   0.12508   0.11990   1.000
    O427    O    0.43237   0.12508   0.11990   1.000
    O428    O    0.19832   0.98765   0.14275   1.000
    O429    O    0.69833   0.98765   0.14275   1.000
    O430    O    0.69842   0.48757   0.14279   1.000
    O431    O    0.69844   0.76240   0.14277   1.000
    O432    O    0.19842   0.76240   0.14277   1.000
    O433    O    0.19841   0.48757   0.14283   1.000
    O434    O    0.69837   0.26246   0.14282   1.000
    O435    O    0.19835   0.26246   0.14282   1.000
    O436    O    0.87221   0.62499   0.14467   1.000
    O437    O    0.78541   0.62500   0.18771   1.000
    O438    O    0.87211   0.12508   0.14488   1.000
    O439    O    0.78531   0.12506   0.18771   1.000
    O440    O    0.37220   0.62499   0.14467   1.000
    O441    O    0.28540   0.62500   0.18771   1.000
    O442    O    0.37210   0.12508   0.14488   1.000
    O443    O    0.28530   0.12506   0.18771   1.000
    O444    O    0.63276   0.97795   0.14658   1.000
    O445    O    0.56817   0.97845   0.15790   1.000
    O446    O    0.13275   0.97795   0.14658   1.000
    O447    O    0.06816   0.97845   0.15790   1.000
    O448    O    0.13277   0.27213   0.14662   1.000
    O449    O    0.06818   0.27160   0.15791   1.000
    O450    O    0.13284   0.77209   0.14661   1.000
    O451    O    0.06826   0.77158   0.15793   1.000
    O452    O    0.63278   0.27213   0.14662   1.000
    O453    O    0.56819   0.27160   0.15791   1.000
    O454    O    0.63286   0.77209   0.14661   1.000
    O455    O    0.56827   0.77158   0.15793   1.000
    O456    O    0.13282   0.47791   0.14664   1.000
    O457    O    0.06823   0.47846   0.15793   1.000
    O458    O    0.63283   0.47791   0.14664   1.000
    O459    O    0.56824   0.47846   0.15793   1.000
    O460    O    0.45231   0.62501   0.20696   1.000
    O461    O    0.95233   0.62501   0.20696   1.000
    O462    O    0.45221   0.12506   0.20717   1.000
    O463    O    0.95223   0.12506   0.20717   1.000
    O464    O    0.16097   0.01970   0.17171   1.000
    O465    O    0.66099   0.01970   0.17171   1.000
    O466    O    0.16109   0.73035   0.17187   1.000
    O467    O    0.66110   0.73035   0.17187   1.000
    O468    O    0.16101   0.23039   0.17189   1.000
    O469    O    0.66102   0.23039   0.17189   1.000
    O470    O    0.16108   0.51965   0.17189   1.000
    O471    O    0.66109   0.51965   0.17189   1.000
    O472    O    0.00640   0.26083   0.17569   1.000
    O473    O    0.05468   0.22959   0.19049   1.000
    O474    O    0.50640   0.26083   0.17569   1.000
    O475    O    0.55470   0.22959   0.19049   1.000
    O476    O    0.00639   0.98918   0.17571   1.000
    O477    O    0.05466   0.02044   0.19048   1.000
    O478    O    0.50639   0.98918   0.17571   1.000
    O479    O    0.55467   0.02044   0.19051   1.000
    O480    O    0.50646   0.48924   0.17571   1.000
    O481    O    0.55477   0.52047   0.19050   1.000
    O482    O    0.00646   0.48924   0.17571   1.000
    O483    O    0.05476   0.52047   0.19050   1.000
    O484    O    0.00650   0.76083   0.17575   1.000
    O485    O    0.05477   0.72959   0.19053   1.000
    O486    O    0.50650   0.76083   0.17575   1.000
    O487    O    0.55479   0.72959   0.19049   1.000
    O488    O    0.11219   0.04531   0.19845   1.000
    O489    O    0.19717   0.08505   0.21404   1.000
    O490    O    0.61220   0.04531   0.19848   1.000
    O491    O    0.69719   0.08505   0.21404   1.000
    O492    O    0.11231   0.54529   0.19862   1.000
    O493    O    0.19729   0.58501   0.21419   1.000
    O494    O    0.61233   0.54529   0.19862   1.000
    O495    O    0.69730   0.58501   0.21419   1.000
    O496    O    0.61233   0.70474   0.19860   1.000
    O497    O    0.69730   0.66500   0.21419   1.000
    O498    O    0.61224   0.20476   0.19862   1.000
    O499    O    0.69721   0.16503   0.21419   1.000
    O500    O    0.11232   0.70474   0.19864   1.000
    O501    O    0.19728   0.66500   0.21419   1.000
    O502    O    0.11223   0.20476   0.19862   1.000
    O503    O    0.19719   0.16503   0.21419   1.000
    O504    O    0.53055   0.66475   0.23442   1.000
    O505    O    0.03044   0.08529   0.23442   1.000
    O506    O    0.53046   0.16477   0.23443   1.000
    O507    O    0.03046   0.16477   0.23443   1.000
    O508    O    0.03055   0.58529   0.23444   1.000
    O509    O    0.53055   0.58529   0.23444   1.000
    O510    O    0.53044   0.08529   0.23444   1.000
    O511    O    0.03055   0.66475   0.23445   1.000
    O512    O    0.28043   0.08529   0.26558   1.000
    O513    O    0.28045   0.16477   0.26559   1.000
    O514    O    0.20219   0.12506   0.29284   1.000
    O515    O    0.28054   0.66475   0.26557   1.000
    O516    O    0.28054   0.58528   0.26559   1.000
    O517    O    0.20229   0.62501   0.29284   1.000
    O518    O    0.78044   0.08529   0.26558   1.000
    O519    O    0.78046   0.16477   0.26559   1.000
    O520    O    0.70220   0.12506   0.29284   1.000
    O521    O    0.78055   0.66475   0.26557   1.000
    O522    O    0.78055   0.58528   0.26559   1.000
    O523    O    0.70230   0.62500   0.29284   1.000
    O524    O    0.44717   0.16503   0.28583   1.000
    O525    O    0.44715   0.08505   0.28584   1.000
    O526    O    0.53526   0.12505   0.31228   1.000
    O527    O    0.94728   0.66500   0.28581   1.000
    O528    O    0.94728   0.58502   0.28583   1.000
    O529    O    0.03536   0.62500   0.31228   1.000
    O530    O    0.94719   0.16503   0.28583   1.000
    O531    O    0.94716   0.08505   0.28584   1.000
    O532    O    0.03526   0.12505   0.31228   1.000
    O533    O    0.44726   0.66500   0.28581   1.000
    O534    O    0.44727   0.58502   0.28583   1.000
    O535    O    0.53536   0.62500   0.31228   1.000
    O536    O    0.86230   0.70474   0.30138   1.000
    O537    O    0.80476   0.72958   0.30951   1.000
    O538    O    0.36229   0.70474   0.30138   1.000
    O539    O    0.30475   0.72958   0.30951   1.000
    O540    O    0.86218   0.04530   0.30141   1.000
    O541    O    0.80464   0.02044   0.30953   1.000
    O542    O    0.36216   0.04530   0.30141   1.000
    O543    O    0.30463   0.02044   0.30953   1.000
    O544    O    0.86230   0.54529   0.30142   1.000
    O545    O    0.80475   0.52047   0.30955   1.000
    O546    O    0.36229   0.54529   0.30142   1.000
    O547    O    0.30474   0.52047   0.30956   1.000
    O548    O    0.86222   0.20476   0.30142   1.000
    O549    O    0.80468   0.22959   0.30956   1.000
    O550    O    0.36221   0.20476   0.30142   1.000
    O551    O    0.30466   0.22960   0.30956   1.000
    O552    O    0.91108   0.73034   0.32816   1.000
    O553    O    0.41107   0.73034   0.32816   1.000
    O554    O    0.91101   0.23038   0.32817   1.000
    O555    O    0.91108   0.51966   0.32817   1.000
    O556    O    0.41107   0.51966   0.32817   1.000
    O557    O    0.41100   0.23038   0.32817   1.000
    O558    O    0.91097   0.01971   0.32819   1.000
    O559    O    0.41095   0.01971   0.32819   1.000
    O560    O    0.75647   0.76082   0.32431   1.000
    O561    O    0.25646   0.76082   0.32431   1.000
    O562    O    0.75637   0.98918   0.32433   1.000
    O563    O    0.25636   0.98918   0.32433   1.000
    O564    O    0.25638   0.26083   0.32436   1.000
    O565    O    0.25643   0.48925   0.32436   1.000
    O566    O    0.75645   0.48925   0.32436   1.000
    O567    O    0.75639   0.26083   0.32436   1.000
    O568    O    0.81825   0.77156   0.34213   1.000
    O569    O    0.31824   0.77156   0.34213   1.000
    O570    O    0.31814   0.97846   0.34215   1.000
    O571    O    0.81816   0.97846   0.34215   1.000
    O572    O    0.81818   0.27159   0.34215   1.000
    O573    O    0.31822   0.47848   0.34215   1.000
    O574    O    0.81823   0.47848   0.34215   1.000
    O575    O    0.31817   0.27159   0.34215   1.000
    O576    O    0.88278   0.27212   0.35345   1.000
    O577    O    0.94836   0.26244   0.35725   1.000
    O578    O    0.38282   0.47794   0.35345   1.000
    O579    O    0.44840   0.48760   0.35726   1.000
    O580    O    0.38277   0.27212   0.35345   1.000
    O581    O    0.44835   0.26244   0.35725   1.000
    O582    O    0.88283   0.47794   0.35345   1.000
    O583    O    0.94842   0.48760   0.35726   1.000
    O584    O    0.88284   0.77207   0.35346   1.000
    O585    O    0.94842   0.76238   0.35726   1.000
    O586    O    0.38283   0.77207   0.35346   1.000
    O587    O    0.44841   0.76238   0.35726   1.000
    O588    O    0.88275   0.97796   0.35348   1.000
    O589    O    0.94832   0.98767   0.35382   1.000
    O590    O    0.38273   0.97796   0.35348   1.000
    O591    O    0.44831   0.98767   0.35382   1.000
    O592    O    0.12203   0.12507   0.35512   1.000
    O593    O    0.18230   0.12507   0.38010   1.000
    O594    O    0.12212   0.62499   0.35512   1.000
    O595    O    0.18239   0.62500   0.38012   1.000
    O596    O    0.62204   0.12507   0.35512   1.000
    O597    O    0.68232   0.12507   0.38010   1.000
    O598    O    0.62214   0.62499   0.35512   1.000
    O599    O    0.68240   0.62500   0.38012   1.000
    O600    O    0.32977   0.83172   0.38997   1.000
    O601    O    0.32972   0.33176   0.38997   1.000
    O602    O    0.82974   0.33176   0.38997   1.000
    O603    O    0.82978   0.83172   0.38997   1.000
    O604    O    0.82976   0.41830   0.38997   1.000
    O605    O    0.32974   0.41830   0.38997   1.000
    O606    O    0.82974   0.91828   0.38998   1.000
    O607    O    0.32972   0.91828   0.38998   1.000
    O608    O    0.57550   0.12507   0.39672   1.000
    O609    O    0.07549   0.12507   0.39672   1.000
    O610    O    0.07557   0.62498   0.39675   1.000
    O611    O    0.57559   0.62498   0.39675   1.000
    O612    O    0.23385   0.12506   0.41545   1.000
    O613    O    0.17288   0.12507   0.43830   1.000
    O614    O    0.73386   0.12506   0.41545   1.000
    O615    O    0.67289   0.12507   0.43830   1.000
    O616    O    0.23393   0.62501   0.41547   1.000
    O617    O    0.17295   0.62499   0.43867   1.000
    O618    O    0.73394   0.62501   0.41547   1.000
    O619    O    0.67296   0.62499   0.43867   1.000
    O620    O    0.22499   0.37503   0.42190   1.000
    O621    O    0.33338   0.37504   0.47749   1.000
    O622    O    0.22502   0.87498   0.42191   1.000
    O623    O    0.33342   0.87497   0.47749   1.000
    O624    O    0.72503   0.87498   0.42191   1.000
    O625    O    0.83343   0.87497   0.47749   1.000
    O626    O    0.72500   0.37503   0.42190   1.000
    O627    O    0.83339   0.37504   0.47749   1.000
    O628    O    0.54111   0.12507   0.44509   1.000
    O629    O    0.60800   0.12506   0.44840   1.000
    O630    O    0.04110   0.12507   0.44509   1.000
    O631    O    0.10799   0.12506   0.44840   1.000
    O632    O    0.54118   0.62496   0.44511   1.000
    O633    O    0.60807   0.62498   0.44878   1.000
    O634    O    0.04117   0.62496   0.44511   1.000
    O635    O    0.10806   0.62498   0.44878   1.000
    O636    O    0.66654   0.12504   0.52219   1.000
    O637    O    0.16653   0.12504   0.52219   1.000
    O638    O    0.66659   0.62498   0.52254   1.000
    O639    O    0.16658   0.62498   0.52254   1.000
    O640    O    0.89197   0.87495   0.55125   1.000
    O641    O    0.82708   0.87495   0.56137   1.000
    O642    O    0.89191   0.37505   0.55125   1.000
    O643    O    0.82702   0.37503   0.56137   1.000
    O644    O    0.39196   0.87495   0.55125   1.000
    O645    O    0.32707   0.87495   0.56137   1.000
    O646    O    0.39190   0.37505   0.55125   1.000
    O647    O    0.32701   0.37503   0.56137   1.000
    O648    O    0.45885   0.87495   0.55488   1.000
    O649    O    0.95886   0.87495   0.55488   1.000
    O650    O    0.45878   0.37506   0.55492   1.000
    O651    O    0.95880   0.37506   0.55492   1.000
    O652    O    0.92447   0.87494   0.60328   1.000
    O653    O    0.42446   0.87494   0.60328   1.000
    O654    O    0.42438   0.37505   0.60328   1.000
    O655    O    0.92440   0.37505   0.60328   1.000
    O656    O    0.77494   0.12503   0.57812   1.000
    O657    O    0.27493   0.12503   0.57812   1.000
    O658    O    0.77497   0.62499   0.57813   1.000
    O659    O    0.27496   0.62499   0.57813   1.000
    O660    O    0.17022   0.08173   0.61004   1.000
    O661    O    0.17018   0.16829   0.61005   1.000
    O662    O    0.67023   0.08173   0.61004   1.000
    O663    O    0.67019   0.16829   0.61005   1.000
    O664    O    0.17023   0.66826   0.61004   1.000
    O665    O    0.17021   0.58171   0.61006   1.000
    O666    O    0.67024   0.66826   0.61004   1.000
    O667    O    0.67022   0.58171   0.61006   1.000
    O668    O    0.26603   0.37501   0.58455   1.000
    O669    O    0.76604   0.37501   0.58455   1.000
    O670    O    0.26610   0.87495   0.58456   1.000
    O671    O    0.76611   0.87495   0.58456   1.000
    O672    O    0.81758   0.37502   0.61989   1.000
    O673    O    0.31757   0.37502   0.61989   1.000
    O674    O    0.31765   0.87494   0.61991   1.000
    O675    O    0.81766   0.87494   0.61991   1.000
    O676    O    0.05164   0.01235   0.64271   1.000
    O677    O    0.55165   0.01235   0.64271   1.000
    O678    O    0.55156   0.23764   0.64273   1.000
    O679    O    0.05154   0.23764   0.64273   1.000
    O680    O    0.55156   0.51242   0.64278   1.000
    O681    O    0.05155   0.51242   0.64278   1.000
    O682    O    0.55161   0.73758   0.64279   1.000
    O683    O    0.05159   0.73758   0.64279   1.000
    O684    O    0.37783   0.37503   0.64490   1.000
    O685    O    0.46461   0.37502   0.68775   1.000
    O686    O    0.37792   0.87494   0.64491   1.000
    O687    O    0.46470   0.87496   0.68775   1.000
    O688    O    0.87785   0.37503   0.64490   1.000
    O689    O    0.96461   0.37502   0.68775   1.000
    O690    O    0.87793   0.87494   0.64491   1.000
    O691    O    0.96470   0.87496   0.68775   1.000
    O692    O    0.61719   0.72790   0.64658   1.000
    O693    O    0.68179   0.72843   0.65786   1.000
    O694    O    0.11718   0.72790   0.64658   1.000
    O695    O    0.18178   0.72843   0.65786   1.000
    O696    O    0.11721   0.02206   0.64655   1.000
    O697    O    0.18180   0.02156   0.65787   1.000
    O698    O    0.61723   0.02206   0.64655   1.000
    O699    O    0.68181   0.02156   0.65787   1.000
    O700    O    0.11712   0.22795   0.64657   1.000
    O701    O    0.18171   0.22846   0.65789   1.000
    O702    O    0.61714   0.22795   0.64657   1.000
    O703    O    0.68173   0.22846   0.65789   1.000
    O704    O    0.11714   0.52208   0.64659   1.000
    O705    O    0.18174   0.52154   0.65788   1.000
    O706    O    0.61715   0.52208   0.64659   1.000
    O707    O    0.68175   0.52154   0.65788   1.000
    O708    O    0.29767   0.37501   0.70718   1.000
    O709    O    0.79768   0.37501   0.70718   1.000
    O710    O    0.29776   0.87496   0.70719   1.000
    O711    O    0.79777   0.87496   0.70719   1.000
    O712    O    0.58900   0.98031   0.67184   1.000
    O713    O    0.08899   0.98031   0.67184   1.000
    O714    O    0.08889   0.26968   0.67185   1.000
    O715    O    0.58890   0.26968   0.67185   1.000
    O716    O    0.08889   0.48036   0.67187   1.000
    O717    O    0.58890   0.48036   0.67187   1.000
    O718    O    0.08895   0.76964   0.67187   1.000
    O719    O    0.58896   0.76964   0.67187   1.000
    O720    O    0.74358   0.73919   0.67566   1.000
    O721    O    0.69530   0.77043   0.69047   1.000
    O722    O    0.24357   0.73919   0.67566   1.000
    O723    O    0.19528   0.77043   0.69047   1.000
    O724    O    0.24352   0.51076   0.67567   1.000
    O725    O    0.19522   0.47954   0.69048   1.000
    O726    O    0.74354   0.51076   0.67567   1.000
    O727    O    0.69523   0.47954   0.69048   1.000
    O728    O    0.24359   0.01083   0.67569   1.000
    O729    O    0.19531   0.97958   0.69047   1.000
    O730    O    0.74360   0.01083   0.67569   1.000
    O731    O    0.69533   0.97958   0.69047   1.000
    O732    O    0.24350   0.23920   0.67572   1.000
    O733    O    0.19521   0.27044   0.69051   1.000
    O734    O    0.74351   0.23920   0.67572   1.000
    O735    O    0.69522   0.27044   0.69051   1.000
    O736    O    0.63779   0.95471   0.69859   1.000
    O737    O    0.55281   0.91497   0.71420   1.000
    O738    O    0.13778   0.95471   0.69859   1.000
    O739    O    0.05279   0.91497   0.71420   1.000
    O740    O    0.63775   0.79526   0.69861   1.000
    O741    O    0.55278   0.83499   0.71420   1.000
    O742    O    0.63768   0.45472   0.69861   1.000
    O743    O    0.55270   0.41500   0.71420   1.000
    O744    O    0.13767   0.45473   0.69861   1.000
    O745    O    0.05269   0.41500   0.71420   1.000
    O746    O    0.63768   0.29528   0.69863   1.000
    O747    O    0.55271   0.33502   0.71420   1.000
    O748    O    0.13767   0.29528   0.69863   1.000
    O749    O    0.05269   0.33502   0.71420   1.000
    O750    O    0.13774   0.79526   0.69861   1.000
    O751    O    0.05277   0.83499   0.71420   1.000
    O752    O    0.71953   0.91473   0.73442   1.000
    O753    O    0.21952   0.91473   0.73442   1.000
    O754    O    0.21950   0.83525   0.73444   1.000
    O755    O    0.71951   0.83525   0.73444   1.000
    O756    O    0.71943   0.41473   0.73444   1.000
    O757    O    0.21942   0.41473   0.73444   1.000
    O758    O    0.21942   0.33527   0.73446   1.000
    O759    O    0.71943   0.33527   0.73446   1.000
    O760    O    0.96941   0.33527   0.76555   1.000
    O761    O    0.96942   0.41473   0.76560   1.000
    O762    O    0.04764   0.37501   0.79285   1.000
    O763    O    0.46941   0.33527   0.76555   1.000
    O764    O    0.46942   0.41473   0.76560   1.000
    O765    O    0.54765   0.37501   0.79287   1.000
    O766    O    0.46952   0.91473   0.76559   1.000
    O767    O    0.46950   0.83525   0.76561   1.000
    O768    O    0.54774   0.87496   0.79287   1.000
    O769    O    0.96952   0.91473   0.76559   1.000
    O770    O    0.96950   0.83525   0.76561   1.000
    O771    O    0.04773   0.87496   0.79287   1.000
    O772    O    0.80276   0.83499   0.78584   1.000
    O773    O    0.80278   0.91497   0.78584   1.000
    O774    O    0.71466   0.87496   0.81227   1.000
    O775    O    0.30275   0.83499   0.78584   1.000
    O776    O    0.30277   0.91497   0.78584   1.000
    O777    O    0.21465   0.87496   0.81227   1.000
    O778    O    0.30267   0.41500   0.78584   1.000
    O779    O    0.30267   0.33502   0.78585   1.000
    O780    O    0.21456   0.37502   0.81232   1.000
    O781    O    0.80268   0.41500   0.78584   1.000
    O782    O    0.80268   0.33502   0.78585   1.000
    O783    O    0.71457   0.37502   0.81232   1.000
    O784    O    0.38764   0.29528   0.80137   1.000
    O785    O    0.44518   0.27043   0.80947   1.000
    O786    O    0.88765   0.29528   0.80137   1.000
    O787    O    0.94519   0.27043   0.80947   1.000
    O788    O    0.88776   0.95471   0.80141   1.000
    O789    O    0.94530   0.97958   0.80953   1.000
    O790    O    0.38775   0.95471   0.80141   1.000
    O791    O    0.44529   0.97958   0.80953   1.000
    O792    O    0.88765   0.45473   0.80141   1.000
    O793    O    0.94521   0.47955   0.80954   1.000
    O794    O    0.38764   0.45473   0.80141   1.000
    O795    O    0.44520   0.47955   0.80954   1.000
    O796    O    0.38771   0.79526   0.80142   1.000
    O797    O    0.44526   0.77043   0.80955   1.000
    O798    O    0.88773   0.79526   0.80142   1.000
    O799    O    0.94527   0.77043   0.80955   1.000
    O800    O    0.83895   0.76963   0.82814   1.000
    O801    O    0.33893   0.76963   0.82814   1.000
    O802    O    0.33887   0.48037   0.82814   1.000
    O803    O    0.83888   0.48037   0.82814   1.000
    O804    O    0.83888   0.26967   0.82817   1.000
    O805    O    0.33886   0.26967   0.82817   1.000
    O806    O    0.33897   0.98032   0.82818   1.000
    O807    O    0.83898   0.98032   0.82818   1.000
    O808    O    0.49347   0.23919   0.82429   1.000
    O809    O    0.99347   0.23918   0.82429   1.000
    O810    O    0.49356   0.01084   0.82432   1.000
    O811    O    0.99356   0.01084   0.82432   1.000
    O812    O    0.49350   0.51077   0.82433   1.000
    O813    O    0.99350   0.51078   0.82433   1.000
    O814    O    0.49355   0.73919   0.82434   1.000
    O815    O    0.99355   0.73919   0.82434   1.000
    O816    O    0.93170   0.22844   0.84210   1.000
    O817    O    0.43169   0.22844   0.84210   1.000
    O818    O    0.43178   0.02157   0.84213   1.000
    O819    O    0.43173   0.52156   0.84211   1.000
    O820    O    0.93179   0.02157   0.84213   1.000
    O821    O    0.93174   0.52156   0.84211   1.000
    O822    O    0.93178   0.72842   0.84212   1.000
    O823    O    0.43177   0.72842   0.84212   1.000
    O824    O    0.36718   0.72789   0.85340   1.000
    O825    O    0.30159   0.73755   0.85721   1.000
    O826    O    0.86715   0.52211   0.85340   1.000
    O827    O    0.80156   0.51245   0.85718   1.000
    O828    O    0.36714   0.52211   0.85340   1.000
    O829    O    0.30155   0.51245   0.85721   1.000
    O830    O    0.86719   0.72789   0.85340   1.000
    O831    O    0.80160   0.73756   0.85721   1.000
    O832    O    0.86712   0.22793   0.85343   1.000
    O833    O    0.80154   0.23762   0.85725   1.000
    O834    O    0.36711   0.22793   0.85343   1.000
    O835    O    0.30153   0.23762   0.85727   1.000
    O836    O    0.36720   0.02207   0.85345   1.000
    O837    O    0.30162   0.01237   0.85729   1.000
    O838    O    0.86721   0.02207   0.85345   1.000
    O839    O    0.80164   0.01236   0.85729   1.000
    O840    O    0.12776   0.37503   0.85514   1.000
    O841    O    0.06749   0.37502   0.88013   1.000
    O842    O    0.12785   0.87494   0.85511   1.000
    O843    O    0.06757   0.87494   0.88014   1.000
    O844    O    0.62786   0.87494   0.85511   1.000
    O845    O    0.56758   0.87494   0.88014   1.000
    O846    O    0.62777   0.37503   0.85516   1.000
    O847    O    0.56750   0.37502   0.88015   1.000
    O848    O    0.92027   0.66825   0.88993   1.000
    O849    O    0.42023   0.58173   0.88992   1.000
    O850    O    0.92025   0.58173   0.88993   1.000
    O851    O    0.42025   0.66825   0.88992   1.000
    O852    O    0.42019   0.16828   0.88994   1.000
    O853    O    0.92020   0.16828   0.88994   1.000
    O854    O    0.42023   0.08174   0.88996   1.000
    O855    O    0.92024   0.08174   0.88996   1.000
    O856    O    0.17439   0.87494   0.89675   1.000
    O857    O    0.67440   0.87494   0.89675   1.000
    O858    O    0.17431   0.37504   0.89681   1.000
    O859    O    0.67432   0.37504   0.89681   1.000
    O860    O    0.01604   0.87494   0.91547   1.000
    O861    O    0.07700   0.87494   0.93868   1.000
    O862    O    0.51604   0.87494   0.91547   1.000
    O863    O    0.57701   0.87494   0.93868   1.000
    O864    O    0.51596   0.37501   0.91550   1.000
    O865    O    0.57694   0.37503   0.93868   1.000
    O866    O    0.01596   0.37501   0.91550   1.000
    O867    O    0.07692   0.37503   0.93868   1.000
    O868    O    0.52501   0.62499   0.92179   1.000
    O869    O    0.02501   0.62499   0.92180   1.000
    O870    O    0.52496   0.12503   0.92182   1.000
    O871    O    0.02496   0.12503   0.92182   1.000
    O872    O    0.70879   0.87494   0.94517   1.000
    O873    O    0.64190   0.87494   0.94881   1.000
    O874    O    0.20877   0.87494   0.94517   1.000
    O875    O    0.14189   0.87494   0.94881   1.000
    O876    O    0.70872   0.37506   0.94518   1.000
    O877    O    0.64183   0.37505   0.94881   1.000
    O878    O    0.20870   0.37506   0.94518   1.000
    O879    O    0.14182   0.37505   0.94881   1.000
loop_
    _geom_bond_atom_site_label_1
    _geom_bond_atom_site_label_2
    _geom_bond_distance
    _geom_bond_site_symmetry_2
    _ccdc_geom_bond_type
    Zr357  O384      0.68068      .   S
    Zr201  O384      0.68068      .   S
    Zr357  O385      0.68029      .   S
    Zr205  O385      0.68029      .   S
    Zr357  O386      1.12747  1_554   S
    Zr5    O386      1.12747      .   S
    Zr359  O387      0.68069      .   S
    Zr203  O387      0.68069      .   S
    Zr359  O388      0.68028      .   S
    Zr207  O388      0.68028      .   S
    Zr359  O389      1.12738  1_554   S
    Zr7    O389      1.12738      .   S
    Zr356  O390      0.68069      .   S
    Zr200  O390      0.68069      .   S
    Zr356  O391      0.68029      .   S
    Zr204  O391      0.68029      .   S
    Zr356  O392      1.12735  1_554   S
    Zr4    O392      1.12735      .   S
    Zr358  O393      0.68069      .   S
    Zr202  O393      0.68069      .   S
    Zr358  O394      0.68029      .   S
    Zr206  O394      0.68029      .   S
    Zr358  O395      1.12735  1_554   S
    Zr6    O395      1.12735      .   S
    Zr104  O396      0.54334      .   S
    Zr200  O396      0.54334      .   S
    Zr106  O397      0.54334      .   S
    Zr202  O397      0.54334      .   S
    Zr105  O398      0.54333      .   S
    Zr201  O398      0.54333      .   S
    Zr107  O399      0.54333      .   S
    Zr203  O399      0.54333      .   S
    Zr202  O400      0.66694      .   S
    Zr350  O400      0.66694      .   S
    Zr201  O401      0.66696      .   S
    Zr349  O401      0.66696      .   S
    Zr200  O402      0.66694      .   S
    Zr348  O402      0.66694      .   S
    Zr203  O403      0.66696      .   S
    Zr351  O403      0.66696      .   S
    Zr237  O404      1.40929      .   S
    Zr15   O404      1.40929      .   S
    Zr239  O405      1.40907      .   S
    Zr13   O405      1.40907  1_455   S
    Zr238  O406      1.40906      .   S
    Zr12   O406      1.40906  1_455   S
    Zr236  O407      1.40927      .   S
    Zr14   O407      1.40927      .   S
    Zr13   O408      1.13357      .   S
    Zr301  O408      1.13357      .   S
    Zr13   O409      1.13351      .   S
    Zr277  O409      1.13351      .   S
    Zr13   O410      1.12744      .   S
    Zr381  O410      1.12744  1_556   S
    Zr15   O411      1.13357      .   S
    Zr303  O411      1.13357      .   S
    Zr15   O412      1.13351      .   S
    Zr279  O412      1.13351      .   S
    Zr15   O413      1.12744      .   S
    Zr383  O413      1.12744  1_556   S
    Zr12   O414      1.13348      .   S
    Zr276  O414      1.13348      .   S
    Zr12   O415      1.13349      .   S
    Zr300  O415      1.13349      .   S
    Zr12   O416      1.12765      .   S
    Zr380  O416      1.12765  1_556   S
    Zr14   O417      1.13347      .   S
    Zr278  O417      1.13347      .   S
    Zr14   O418      1.13350      .   S
    Zr302  O418      1.13350      .   S
    Zr14   O419      1.12765      .   S
    Zr382  O419      1.12765  1_556   S
    Zr111  O420      0.54265      .   S
    Zr205  O420      0.54265      .   S
    Zr109  O421      0.54245  1_455   S
    Zr207  O421      0.54245      .   S
    Zr108  O422      0.54246  1_455   S
    Zr206  O422      0.54246      .   S
    Zr110  O423      0.54266      .   S
    Zr204  O423      0.54266      .   S
    Zr207  O424      0.66151      .   S
    Zr355  O424      0.66151      .   S
    Zr205  O425      0.66151      .   S
    Zr353  O425      0.66151      .   S
    Zr206  O426      0.66485      .   S
    Zr354  O426      0.66485      .   S
    Zr204  O427      0.66485      .   S
    Zr352  O427      0.66485      .   S
    Zr73   O428      0.54305      .   S
    Zr169  O428      0.54305      .   S
    Zr75   O429      0.54305      .   S
    Zr171  O429      0.54305      .   S
    Zr74   O430      0.54329      .   S
    Zr170  O430      0.54329      .   S
    Zr59   O431      0.54304      .   S
    Zr155  O431      0.54304      .   S
    Zr57   O432      0.54304      .   S
    Zr153  O432      0.54304      .   S
    Zr72   O433      0.54304      .   S
    Zr168  O433      0.54304      .   S
    Zr58   O434      0.54302      .   S
    Zr154  O434      0.54302      .   S
    Zr56   O435      0.54303      .   S
    Zr152  O435      0.54303      .   S
    Zr351  O436      0.68962      .   S
    Zr355  O436      0.68962      .   S
    Zr351  O437      1.18176      .   S
    Zr31   O437      1.18176      .   S
    Zr350  O438      0.69029      .   S
    Zr354  O438      0.69029      .   S
    Zr350  O439      1.18177      .   S
    Zr30   O439      1.18177      .   S
    Zr349  O440      0.68962      .   S
    Zr353  O440      0.68962      .   S
    Zr349  O441      1.18176      .   S
    Zr29   O441      1.18176      .   S
    Zr348  O442      0.69029      .   S
    Zr352  O442      0.69029      .   S
    Zr348  O443      1.18177      .   S
    Zr28   O443      1.18177      .   S
    Zr303  O444      0.68053      .   S
    Zr171  O444      0.68053      .   S
    Zr303  O445      0.67994      .   S
    Zr175  O445      0.67994      .   S
    Zr301  O446      0.68054      .   S
    Zr169  O446      0.68054      .   S
    Zr301  O447      0.67994      .   S
    Zr173  O447      0.67994      .   S
    Zr276  O448      0.68054      .   S
    Zr152  O448      0.68054      .   S
    Zr276  O449      0.67996      .   S
    Zr156  O449      0.67996      .   S
    Zr277  O450      0.68054      .   S
    Zr153  O450      0.68054      .   S
    Zr277  O451      0.67996      .   S
    Zr157  O451      0.67996      .   S
    Zr278  O452      0.68054      .   S
    Zr154  O452      0.68054      .   S
    Zr278  O453      0.67996      .   S
    Zr158  O453      0.67996      .   S
    Zr279  O454      0.68054      .   S
    Zr155  O454      0.68054      .   S
    Zr279  O455      0.67994      .   S
    Zr159  O455      0.67994      .   S
    Zr300  O456      0.68053      .   S
    Zr168  O456      0.68053      .   S
    Zr300  O457      0.67990      .   S
    Zr172  O457      0.67990      .   S
    Zr302  O458      0.68053      .   S
    Zr170  O458      0.68053      .   S
    Zr302  O459      0.67990      .   S
    Zr174  O459      0.67990      .   S
    Zr353  O460      1.22394      .   S
    Zr17   O460      1.22394      .   S
    Zr355  O461      1.22394      .   S
    Zr19   O461      1.22394      .   S
    Zr352  O462      1.22060      .   S
    Zr16   O462      1.22060      .   S
    Zr354  O463      1.22060      .   S
    Zr18   O463      1.22060      .   S
    Zr169  O464      0.66591  1_565   S
    Zr304  O464      0.66591      .   S
    Zr171  O465      0.66591  1_565   S
    Zr306  O465      0.66591      .   S
    Zr153  O466      0.66733      .   S
    Zr281  O466      0.66733      .   S
    Zr155  O467      0.66729      .   S
    Zr283  O467      0.66729      .   S
    Zr152  O468      0.66730      .   S
    Zr280  O468      0.66730      .   S
    Zr154  O469      0.66730      .   S
    Zr282  O469      0.66730      .   S
    Zr168  O470      0.66723      .   S
    Zr305  O470      0.66723      .   S
    Zr170  O471      0.66723      .   S
    Zr307  O471      0.66723      .   S
    Zr156  O472      0.54251      .   S
    Zr62   O472      0.54251  1_655   S
    Zr156  O473      0.66488      .   S
    Zr284  O473      0.66488      .   S
    Zr158  O474      0.54271      .   S
    Zr60   O474      0.54271      .   S
    Zr158  O475      0.66488      .   S
    Zr286  O475      0.66488      .   S
    Zr173  O476      0.54251      .   S
    Zr79   O476      0.54251  1_655   S
    Zr173  O477      0.66483  1_565   S
    Zr308  O477      0.66483      .   S
    Zr175  O478      0.54271      .   S
    Zr77   O478      0.54271      .   S
    Zr175  O479      0.66507  1_565   S
    Zr310  O479      0.66507      .   S
    Zr174  O480      0.54271      .   S
    Zr76   O480      0.54271      .   S
    Zr174  O481      0.66490      .   S
    Zr311  O481      0.66490      .   S
    Zr172  O482      0.54251      .   S
    Zr78   O482      0.54251  1_655   S
    Zr172  O483      0.66490      .   S
    Zr309  O483      0.66490      .   S
    Zr157  O484      0.54250      .   S
    Zr63   O484      0.54250  1_655   S
    Zr157  O485      0.66491      .   S
    Zr285  O485      0.66491      .   S
    Zr159  O486      0.54272      .   S
    Zr61   O486      0.54272      .   S
    Zr159  O487      0.66459      .   S
    Zr287  O487      0.66459      .   S
    Zr304  O488      0.69059      .   S
    Zr308  O488      0.69059      .   S
    Zr304  O489      1.19171      .   S
    Zr28   O489      1.19171      .   S
    Zr306  O490      0.69070      .   S
    Zr310  O490      0.69070      .   S
    Zr306  O491      1.19171      .   S
    Zr30   O491      1.19171      .   S
    Zr305  O492      0.69014      .   S
    Zr309  O492      0.69014      .   S
    Zr305  O493      1.19071      .   S
    Zr29   O493      1.19071      .   S
    Zr307  O494      0.69014      .   S
    Zr311  O494      0.69014      .   S
    Zr307  O495      1.19071      .   S
    Zr31   O495      1.19071      .   S
    Zr283  O496      0.68999      .   S
    Zr287  O496      0.68999      .   S
    Zr283  O497      1.19063      .   S
    Zr31   O497      1.19063      .   S
    Zr282  O498      0.69012      .   S
    Zr286  O498      0.69012      .   S
    Zr282  O499      1.19054      .   S
    Zr30   O499      1.19054      .   S
    Zr281  O500      0.69013      .   S
    Zr285  O500      0.69013      .   S
    Zr281  O501      1.19060      .   S
    Zr29   O501      1.19060      .   S
    Zr280  O502      0.69011      .   S
    Zr284  O502      0.69011      .   S
    Zr280  O503      1.19055      .   S
    Zr28   O503      1.19055      .   S
    Zr287  O504      1.20071      .   S
    Zr17   O504      1.20071      .   S
    Zr308  O505      1.20057      .   S
    Zr18   O505      1.20057  1_655   S
    Zr286  O506      1.20051      .   S
    Zr16   O506      1.20051      .   S
    Zr284  O507      1.20039      .   S
    Zr18   O507      1.20039  1_655   S
    Zr309  O508      1.20021      .   S
    Zr19   O508      1.20021  1_655   S
    Zr311  O509      1.20032      .   S
    Zr17   O509      1.20032      .   S
    Zr310  O510      1.20044      .   S
    Zr16   O510      1.20044      .   S
    Zr285  O511      1.20027      .   S
    Zr19   O511      1.20027  1_655   S
    Zr28   O512      1.20026      .   S
    Zr248  O512      1.20026      .   S
    Zr28   O513      1.20033      .   S
    Zr320  O513      1.20033      .   S
    Zr28   O514      1.22113      .   S
    Zr364  O514      1.22113      .   S
    Zr29   O515      1.20019      .   S
    Zr321  O515      1.20019      .   S
    Zr29   O516      1.20013      .   S
    Zr249  O516      1.20013      .   S
    Zr29   O517      1.22114      .   S
    Zr365  O517      1.22114      .   S
    Zr30   O518      1.20026      .   S
    Zr250  O518      1.20026      .   S
    Zr30   O519      1.20032      .   S
    Zr322  O519      1.20032      .   S
    Zr30   O520      1.22113      .   S
    Zr366  O520      1.22113      .   S
    Zr31   O521      1.20019      .   S
    Zr323  O521      1.20019      .   S
    Zr31   O522      1.20010      .   S
    Zr251  O522      1.20010      .   S
    Zr31   O523      1.22114      .   S
    Zr367  O523      1.22114      .   S
    Zr16   O524      1.19078      .   S
    Zr316  O524      1.19078      .   S
    Zr16   O525      1.19092      .   S
    Zr244  O525      1.19092      .   S
    Zr16   O526      1.18125      .   S
    Zr362  O526      1.18125      .   S
    Zr19   O527      1.19066      .   S
    Zr319  O527      1.19066      .   S
    Zr19   O528      1.19088      .   S
    Zr247  O528      1.19088      .   S
    Zr19   O529      1.18109  1_655   S
    Zr361  O529      1.18109      .   S
    Zr18   O530      1.19078      .   S
    Zr318  O530      1.19078      .   S
    Zr18   O531      1.19092      .   S
    Zr246  O531      1.19092      .   S
    Zr18   O532      1.18113  1_655   S
    Zr360  O532      1.18113      .   S
    Zr17   O533      1.19066      .   S
    Zr317  O533      1.19066      .   S
    Zr17   O534      1.19088      .   S
    Zr245  O534      1.19088      .   S
    Zr17   O535      1.18122      .   S
    Zr363  O535      1.18122      .   S
    Zr323  O536      0.69005      .   S
    Zr319  O536      0.69005      .   S
    Zr323  O537      0.66490      .   S
    Zr183  O537      0.66490      .   S
    Zr321  O538      0.69005      .   S
    Zr317  O538      0.69005      .   S
    Zr321  O539      0.66490      .   S
    Zr181  O539      0.66490      .   S
    Zr250  O540      0.69013      .   S
    Zr246  O540      0.69013      .   S
    Zr250  O541      0.66507      .   S
    Zr135  O541      0.66507  1_565   S
    Zr248  O542      0.69013      .   S
    Zr244  O542      0.69013      .   S
    Zr248  O543      0.66507      .   S
    Zr133  O543      0.66507  1_565   S
    Zr251  O544      0.69013      .   S
    Zr247  O544      0.69013      .   S
    Zr251  O545      0.66491      .   S
    Zr134  O545      0.66491      .   S
    Zr249  O546      0.69011      .   S
    Zr245  O546      0.69011      .   S
    Zr249  O547      0.66487      .   S
    Zr132  O547      0.66487      .   S
    Zr322  O548      0.69012      .   S
    Zr318  O548      0.69012      .   S
    Zr322  O549      0.66490      .   S
    Zr182  O549      0.66490      .   S
    Zr320  O550      0.69012      .   S
    Zr316  O550      0.69012      .   S
    Zr320  O551      0.66489      .   S
    Zr180  O551      0.66489      .   S
    Zr319  O552      0.66753      .   S
    Zr179  O552      0.66753      .   S
    Zr317  O553      0.66753      .   S
    Zr177  O553      0.66753      .   S
    Zr318  O554      0.66732      .   S
    Zr178  O554      0.66732      .   S
    Zr247  O555      0.66729      .   S
    Zr130  O555      0.66729      .   S
    Zr245  O556      0.66730      .   S
    Zr128  O556      0.66730      .   S
    Zr316  O557      0.66731      .   S
    Zr176  O557      0.66731      .   S
    Zr246  O558      0.66742      .   S
    Zr131  O558      0.66742  1_565   S
    Zr244  O559      0.66742      .   S
    Zr129  O559      0.66742  1_565   S
    Zr87   O560      0.54272      .   S
    Zr183  O560      0.54272      .   S
    Zr85   O561      0.54272      .   S
    Zr181  O561      0.54272      .   S
    Zr39   O562      0.54272      .   S
    Zr135  O562      0.54272      .   S
    Zr37   O563      0.54272      .   S
    Zr133  O563      0.54272      .   S
    Zr84   O564      0.54272      .   S
    Zr180  O564      0.54272      .   S
    Zr36   O565      0.54272      .   S
    Zr132  O565      0.54272      .   S
    Zr38   O566      0.54272      .   S
    Zr134  O566      0.54272      .   S
    Zr86   O567      0.54271      .   S
    Zr182  O567      0.54271      .   S
    Zr183  O568      0.67995      .   S
    Zr315  O568      0.67995      .   S
    Zr181  O569      0.67995      .   S
    Zr313  O569      0.67995      .   S
    Zr133  O570      0.67996      .   S
    Zr241  O570      0.67996      .   S
    Zr135  O571      0.67996      .   S
    Zr243  O571      0.67996      .   S
    Zr182  O572      0.67997      .   S
    Zr314  O572      0.67997      .   S
    Zr132  O573      0.67994      .   S
    Zr240  O573      0.67994      .   S
    Zr134  O574      0.67994      .   S
    Zr242  O574      0.67994      .   S
    Zr180  O575      0.67997      .   S
    Zr312  O575      0.67997      .   S
    Zr178  O576      0.68053      .   S
    Zr314  O576      0.68053      .   S
    Zr178  O577      0.54302      .   S
    Zr82   O577      0.54302      .   S
    Zr128  O578      0.68054      .   S
    Zr240  O578      0.68054      .   S
    Zr128  O579      0.54306      .   S
    Zr32   O579      0.54306      .   S
    Zr176  O580      0.68054      .   S
    Zr312  O580      0.68054      .   S
    Zr176  O581      0.54299      .   S
    Zr80   O581      0.54299      .   S
    Zr130  O582      0.68054      .   S
    Zr242  O582      0.68054      .   S
    Zr130  O583      0.54307      .   S
    Zr34   O583      0.54307      .   S
    Zr179  O584      0.68054      .   S
    Zr315  O584      0.68054      .   S
    Zr179  O585      0.54278      .   S
    Zr83   O585      0.54278      .   S
    Zr177  O586      0.68054      .   S
    Zr313  O586      0.68054      .   S
    Zr177  O587      0.54278      .   S
    Zr81   O587      0.54278      .   S
    Zr131  O588      0.68054      .   S
    Zr243  O588      0.68054      .   S
    Zr131  O589      0.52457      .   S
    Zr35   O589      0.52457      .   S
    Zr129  O590      0.68054      .   S
    Zr241  O590      0.68054      .   S
    Zr129  O591      0.52457      .   S
    Zr33   O591      0.52457      .   S
    Zr364  O592      0.69028      .   S
    Zr360  O592      0.69028      .   S
    Zr364  O593      0.66459      .   S
    Zr212  O593      0.66459      .   S
    Zr365  O594      0.69031      .   S
    Zr361  O594      0.69031      .   S
    Zr365  O595      0.66495      .   S
    Zr213  O595      0.66495      .   S
    Zr366  O596      0.69028      .   S
    Zr362  O596      0.69028      .   S
    Zr366  O597      0.66459      .   S
    Zr214  O597      0.66459      .   S
    Zr367  O598      0.69031      .   S
    Zr363  O598      0.69031      .   S
    Zr367  O599      0.66495      .   S
    Zr215  O599      0.66495      .   S
    Zr313  O600      1.13357      .   S
    Zr1    O600      1.13357      .   S
    Zr312  O601      1.13352      .   S
    Zr0    O601      1.13352      .   S
    Zr314  O602      1.13352      .   S
    Zr2    O602      1.13352      .   S
    Zr315  O603      1.13357      .   S
    Zr3    O603      1.13357      .   S
    Zr242  O604      1.13353      .   S
    Zr2    O604      1.13353      .   S
    Zr240  O605      1.13353      .   S
    Zr0    O605      1.13353      .   S
    Zr243  O606      1.13360      .   S
    Zr3    O606      1.13360      .   S
    Zr241  O607      1.13360      .   S
    Zr1    O607      1.13360      .   S
    Zr362  O608      0.66622      .   S
    Zr210  O608      0.66622      .   S
    Zr360  O609      0.66622      .   S
    Zr208  O609      0.66622      .   S
    Zr361  O610      0.66689      .   S
    Zr209  O610      0.66689      .   S
    Zr363  O611      0.66689      .   S
    Zr211  O611      0.66689      .   S
    Zr212  O612      0.54270      .   S
    Zr116  O612      0.54270      .   S
    Zr212  O613      0.67559      .   S
    Zr368  O613      0.67559      .   S
    Zr214  O614      0.54271      .   S
    Zr118  O614      0.54271      .   S
    Zr214  O615      0.67558      .   S
    Zr370  O615      0.67558      .   S
    Zr213  O616      0.54261      .   S
    Zr117  O616      0.54261      .   S
    Zr213  O617      0.68026      .   S
    Zr369  O617      0.68026      .   S
    Zr215  O618      0.54261      .   S
    Zr119  O618      0.54261      .   S
    Zr215  O619      0.68026      .   S
    Zr371  O619      0.68026      .   S
    Zr0    O620      1.40928      .   S
    Zr224  O620      1.40928      .   S
    Zr0    O621      1.12736      .   S
    Zr344  O621      1.12736      .   S
    Zr1    O622      1.40928      .   S
    Zr225  O622      1.40928      .   S
    Zr1    O623      1.12744      .   S
    Zr345  O623      1.12744      .   S
    Zr3    O624      1.40929      .   S
    Zr227  O624      1.40929      .   S
    Zr3    O625      1.12743      .   S
    Zr347  O625      1.12743      .   S
    Zr2    O626      1.40928      .   S
    Zr226  O626      1.40928      .   S
    Zr2    O627      1.12736      .   S
    Zr346  O627      1.12736      .   S
    Zr210  O628      0.54368      .   S
    Zr114  O628      0.54368      .   S
    Zr210  O629      0.67796      .   S
    Zr370  O629      0.67796      .   S
    Zr208  O630      0.54369      .   S
    Zr112  O630      0.54369      .   S
    Zr208  O631      0.67796      .   S
    Zr368  O631      0.67796      .   S
    Zr211  O632      0.54334      .   S
    Zr115  O632      0.54334      .   S
    Zr211  O633      0.68066      .   S
    Zr371  O633      0.68066      .   S
    Zr209  O634      0.54334      .   S
    Zr113  O634      0.54334      .   S
    Zr209  O635      0.68066      .   S
    Zr369  O635      0.68066      .   S
    Zr370  O636      1.13363      .   S
    Zr10   O636      1.13363      .   S
    Zr368  O637      1.13363      .   S
    Zr8    O637      1.13363      .   S
    Zr371  O638      1.12735      .   S
    Zr11   O638      1.12735      .   S
    Zr369  O639      1.12735      .   S
    Zr9    O639      1.12735      .   S
    Zr347  O640      0.68068      .   S
    Zr195  O640      0.68068      .   S
    Zr347  O641      0.68025      .   S
    Zr199  O641      0.68025      .   S
    Zr346  O642      0.68066      .   S
    Zr194  O642      0.68066      .   S
    Zr346  O643      0.68025      .   S
    Zr198  O643      0.68025      .   S
    Zr345  O644      0.68068      .   S
    Zr193  O644      0.68068      .   S
    Zr345  O645      0.68025      .   S
    Zr197  O645      0.68025      .   S
    Zr344  O646      0.68066      .   S
    Zr192  O646      0.68066      .   S
    Zr344  O647      0.68025      .   S
    Zr196  O647      0.68025      .   S
    Zr97   O648      0.54360      .   S
    Zr193  O648      0.54360      .   S
    Zr99   O649      0.54360      .   S
    Zr195  O649      0.54360      .   S
    Zr96   O650      0.54334      .   S
    Zr192  O650      0.54334      .   S
    Zr98   O651      0.54334      .   S
    Zr194  O651      0.54334      .   S
    Zr195  O652      0.66697      .   S
    Zr339  O652      0.66697      .   S
    Zr193  O653      0.66697      .   S
    Zr337  O653      0.66697      .   S
    Zr192  O654      0.66689      .   S
    Zr336  O654      0.66689      .   S
    Zr194  O655      0.66689      .   S
    Zr338  O655      0.66689      .   S
    Zr234  O656      1.40929      .   S
    Zr10   O656      1.40929      .   S
    Zr232  O657      1.40929      .   S
    Zr8    O657      1.40929      .   S
    Zr235  O658      1.40928      .   S
    Zr11   O658      1.40928      .   S
    Zr233  O659      1.40928      .   S
    Zr9    O659      1.40928      .   S
    Zr8    O660      1.13360      .   S
    Zr288  O660      1.13360      .   S
    Zr8    O661      1.13357      .   S
    Zr264  O661      1.13357      .   S
    Zr10   O662      1.13360      .   S
    Zr290  O662      1.13360      .   S
    Zr10   O663      1.13357      .   S
    Zr266  O663      1.13357      .   S
    Zr9    O664      1.13333      .   S
    Zr265  O664      1.13333      .   S
    Zr9    O665      1.13353      .   S
    Zr289  O665      1.13353      .   S
    Zr11   O666      1.13333      .   S
    Zr267  O666      1.13333      .   S
    Zr11   O667      1.13352      .   S
    Zr291  O667      1.13352      .   S
    Zr100  O668      0.54266      .   S
    Zr196  O668      0.54266      .   S
    Zr102  O669      0.54266      .   S
    Zr198  O669      0.54266      .   S
    Zr101  O670      0.54266      .   S
    Zr197  O670      0.54266      .   S
    Zr103  O671      0.54266      .   S
    Zr199  O671      0.54266      .   S
    Zr198  O672      0.66461      .   S
    Zr342  O672      0.66461      .   S
    Zr196  O673      0.66461      .   S
    Zr340  O673      0.66461      .   S
    Zr197  O674      0.66484      .   S
    Zr341  O674      0.66484      .   S
    Zr199  O675      0.66484      .   S
    Zr343  O675      0.66484      .   S
    Zr64   O676      0.54304      .   S
    Zr160  O676      0.54304      .   S
    Zr66   O677      0.54304      .   S
    Zr162  O677      0.54304      .   S
    Zr50   O678      0.54304      .   S
    Zr146  O678      0.54304      .   S
    Zr48   O679      0.54304      .   S
    Zr144  O679      0.54304      .   S
    Zr67   O680      0.54305      .   S
    Zr163  O680      0.54305      .   S
    Zr65   O681      0.54304      .   S
    Zr161  O681      0.54304      .   S
    Zr51   O682      0.54306      .   S
    Zr147  O682      0.54306      .   S
    Zr49   O683      0.54307      .   S
    Zr145  O683      0.54307      .   S
    Zr336  O684      0.69023      .   S
    Zr340  O684      0.69023      .   S
    Zr336  O685      1.18121      .   S
    Zr26   O685      1.18121      .   S
    Zr337  O686      0.69027      .   S
    Zr341  O686      0.69027      .   S
    Zr337  O687      1.18123      .   S
    Zr27   O687      1.18123      .   S
    Zr338  O688      0.69024      .   S
    Zr342  O688      0.69024      .   S
    Zr338  O689      1.18108      .   S
    Zr24   O689      1.18108  1_455   S
    Zr339  O690      0.69026      .   S
    Zr343  O690      0.69026      .   S
    Zr339  O691      1.18111      .   S
    Zr25   O691      1.18111  1_455   S
    Zr267  O692      0.68062      .   S
    Zr147  O692      0.68062      .   S
    Zr267  O693      0.68013      .   S
    Zr151  O693      0.68013      .   S
    Zr265  O694      0.68061      .   S
    Zr145  O694      0.68061      .   S
    Zr265  O695      0.68013      .   S
    Zr149  O695      0.68013      .   S
    Zr288  O696      0.68054      .   S
    Zr160  O696      0.68054      .   S
    Zr288  O697      0.67997      .   S
    Zr164  O697      0.67997      .   S
    Zr290  O698      0.68054      .   S
    Zr162  O698      0.68054      .   S
    Zr290  O699      0.67997      .   S
    Zr166  O699      0.67997      .   S
    Zr264  O700      0.68055      .   S
    Zr144  O700      0.68055      .   S
    Zr264  O701      0.67995      .   S
    Zr148  O701      0.67995      .   S
    Zr266  O702      0.68056      .   S
    Zr146  O702      0.68056      .   S
    Zr266  O703      0.67995      .   S
    Zr150  O703      0.67995      .   S
    Zr289  O704      0.68054      .   S
    Zr161  O704      0.68054      .   S
    Zr289  O705      0.67997      .   S
    Zr165  O705      0.67997      .   S
    Zr291  O706      0.68054      .   S
    Zr163  O706      0.68054      .   S
    Zr291  O707      0.67996      .   S
    Zr167  O707      0.67996      .   S
    Zr340  O708      1.22148      .   S
    Zr20   O708      1.22148      .   S
    Zr342  O709      1.22148      .   S
    Zr22   O709      1.22148      .   S
    Zr341  O710      1.22114      .   S
    Zr21   O710      1.22114      .   S
    Zr343  O711      1.22114      .   S
    Zr23   O711      1.22114      .   S
    Zr162  O712      0.66747  1_545   S
    Zr295  O712      0.66747      .   S
    Zr160  O713      0.66747  1_545   S
    Zr293  O713      0.66747      .   S
    Zr144  O714      0.66732      .   S
    Zr268  O714      0.66732      .   S
    Zr146  O715      0.66731      .   S
    Zr270  O715      0.66731      .   S
    Zr161  O716      0.66731      .   S
    Zr292  O716      0.66731      .   S
    Zr163  O717      0.66731      .   S
    Zr294  O717      0.66731      .   S
    Zr145  O718      0.66728      .   S
    Zr269  O718      0.66728      .   S
    Zr147  O719      0.66728      .   S
    Zr271  O719      0.66728      .   S
    Zr151  O720      0.54272      .   S
    Zr55   O720      0.54272      .   S
    Zr151  O721      0.66494      .   S
    Zr275  O721      0.66494      .   S
    Zr149  O722      0.54272      .   S
    Zr53   O722      0.54272      .   S
    Zr149  O723      0.66493      .   S
    Zr273  O723      0.66493      .   S
    Zr165  O724      0.54271      .   S
    Zr69   O724      0.54271      .   S
    Zr165  O725      0.66486      .   S
    Zr296  O725      0.66486      .   S
    Zr167  O726      0.54272      .   S
    Zr71   O726      0.54272      .   S
    Zr167  O727      0.66487      .   S
    Zr298  O727      0.66487      .   S
    Zr164  O728      0.54271      .   S
    Zr68   O728      0.54271      .   S
    Zr164  O729      0.66484  1_545   S
    Zr297  O729      0.66484      .   S
    Zr166  O730      0.54272      .   S
    Zr70   O730      0.54272      .   S
    Zr166  O731      0.66484  1_545   S
    Zr299  O731      0.66484      .   S
    Zr148  O732      0.54272      .   S
    Zr52   O732      0.54272      .   S
    Zr148  O733      0.66490      .   S
    Zr272  O733      0.66490      .   S
    Zr150  O734      0.54272      .   S
    Zr54   O734      0.54272      .   S
    Zr150  O735      0.66490      .   S
    Zr274  O735      0.66490      .   S
    Zr295  O736      0.69002      .   S
    Zr299  O736      0.69002      .   S
    Zr295  O737      1.19092      .   S
    Zr27   O737      1.19092      .   S
    Zr293  O738      0.69002      .   S
    Zr297  O738      0.69002      .   S
    Zr293  O739      1.19092      .   S
    Zr25   O739      1.19092      .   S
    Zr271  O740      0.69013      .   S
    Zr275  O740      0.69013      .   S
    Zr271  O741      1.19080      .   S
    Zr27   O741      1.19080      .   S
    Zr294  O742      0.69013      .   S
    Zr298  O742      0.69013      .   S
    Zr294  O743      1.19089      .   S
    Zr26   O743      1.19089      .   S
    Zr292  O744      0.69012      .   S
    Zr296  O744      0.69012      .   S
    Zr292  O745      1.19090      .   S
    Zr24   O745      1.19090      .   S
    Zr270  O746      0.69012      .   S
    Zr274  O746      0.69012      .   S
    Zr270  O747      1.19080      .   S
    Zr26   O747      1.19080      .   S
    Zr268  O748      0.69012      .   S
    Zr272  O748      0.69012      .   S
    Zr268  O749      1.19080      .   S
    Zr24   O749      1.19080      .   S
    Zr269  O750      0.69013      .   S
    Zr273  O750      0.69013      .   S
    Zr269  O751      1.19080      .   S
    Zr25   O751      1.19080      .   S
    Zr299  O752      1.20047      .   S
    Zr23   O752      1.20047      .   S
    Zr297  O753      1.20047      .   S
    Zr21   O753      1.20047      .   S
    Zr273  O754      1.20025      .   S
    Zr21   O754      1.20025      .   S
    Zr275  O755      1.20025      .   S
    Zr23   O755      1.20025      .   S
    Zr298  O756      1.20012      .   S
    Zr22   O756      1.20012      .   S
    Zr296  O757      1.20013      .   S
    Zr20   O757      1.20013      .   S
    Zr272  O758      1.20023      .   S
    Zr20   O758      1.20023      .   S
    Zr274  O759      1.20023      .   S
    Zr22   O759      1.20023      .   S
    Zr24   O760      1.20003  1_455   S
    Zr334  O760      1.20003      .   S
    Zr24   O761      1.20019  1_455   S
    Zr262  O761      1.20019      .   S
    Zr24   O762      1.22035      .   S
    Zr376  O762      1.22035      .   S
    Zr26   O763      1.20014      .   S
    Zr332  O763      1.20014      .   S
    Zr26   O764      1.20032      .   S
    Zr260  O764      1.20032      .   S
    Zr26   O765      1.22068      .   S
    Zr378  O765      1.22068      .   S
    Zr27   O766      1.20043      .   S
    Zr261  O766      1.20043      .   S
    Zr27   O767      1.20048      .   S
    Zr333  O767      1.20048      .   S
    Zr27   O768      1.22061      .   S
    Zr379  O768      1.22061      .   S
    Zr25   O769      1.20032  1_455   S
    Zr263  O769      1.20032      .   S
    Zr25   O770      1.20037  1_455   S
    Zr335  O770      1.20037      .   S
    Zr25   O771      1.22061      .   S
    Zr377  O771      1.22061      .   S
    Zr23   O772      1.19057      .   S
    Zr331  O772      1.19057      .   S
    Zr23   O773      1.19070      .   S
    Zr259  O773      1.19070      .   S
    Zr23   O774      1.18118      .   S
    Zr375  O774      1.18118      .   S
    Zr21   O775      1.19057      .   S
    Zr329  O775      1.19057      .   S
    Zr21   O776      1.19070      .   S
    Zr257  O776      1.19070      .   S
    Zr21   O777      1.18118      .   S
    Zr373  O777      1.18118      .   S
    Zr20   O778      1.19068      .   S
    Zr256  O778      1.19068      .   S
    Zr20   O779      1.19060      .   S
    Zr328  O779      1.19060      .   S
    Zr20   O780      1.18176      .   S
    Zr372  O780      1.18176      .   S
    Zr22   O781      1.19068      .   S
    Zr258  O781      1.19068      .   S
    Zr22   O782      1.19060      .   S
    Zr330  O782      1.19060      .   S
    Zr22   O783      1.18176      .   S
    Zr374  O783      1.18176      .   S
    Zr332  O784      0.69026      .   S
    Zr328  O784      0.69026      .   S
    Zr332  O785      0.66515      .   S
    Zr188  O785      0.66515      .   S
    Zr334  O786      0.69026      .   S
    Zr330  O786      0.69026      .   S
    Zr334  O787      0.66516      .   S
    Zr190  O787      0.66516      .   S
    Zr263  O788      0.69013      .   S
    Zr259  O788      0.69013      .   S
    Zr263  O789      0.66507      .   S
    Zr142  O789      0.66507  1_545   S
    Zr261  O790      0.69013      .   S
    Zr257  O790      0.69013      .   S
    Zr261  O791      0.66508      .   S
    Zr140  O791      0.66508  1_545   S
    Zr262  O792      0.69013      .   S
    Zr258  O792      0.69013      .   S
    Zr262  O793      0.66491      .   S
    Zr143  O793      0.66491      .   S
    Zr260  O794      0.69013      .   S
    Zr256  O794      0.69013      .   S
    Zr260  O795      0.66490      .   S
    Zr141  O795      0.66490      .   S
    Zr333  O796      0.69013      .   S
    Zr329  O796      0.69013      .   S
    Zr333  O797      0.66489      .   S
    Zr189  O797      0.66489      .   S
    Zr335  O798      0.69012      .   S
    Zr331  O798      0.69012      .   S
    Zr335  O799      0.66489      .   S
    Zr191  O799      0.66489      .   S
    Zr331  O800      0.66727      .   S
    Zr187  O800      0.66727      .   S
    Zr329  O801      0.66728      .   S
    Zr185  O801      0.66728      .   S
    Zr256  O802      0.66728      .   S
    Zr137  O802      0.66728      .   S
    Zr258  O803      0.66728      .   S
    Zr139  O803      0.66728      .   S
    Zr330  O804      0.66728      .   S
    Zr186  O804      0.66728      .   S
    Zr328  O805      0.66728      .   S
    Zr184  O805      0.66728      .   S
    Zr257  O806      0.66746      .   S
    Zr136  O806      0.66746  1_545   S
    Zr259  O807      0.66745      .   S
    Zr138  O807      0.66745  1_545   S
    Zr94   O808      0.54272      .   S
    Zr188  O808      0.54272      .   S
    Zr92   O809      0.54251  1_455   S
    Zr190  O809      0.54251      .   S
    Zr46   O810      0.54271      .   S
    Zr140  O810      0.54271      .   S
    Zr44   O811      0.54251  1_455   S
    Zr142  O811      0.54251      .   S
    Zr47   O812      0.54271      .   S
    Zr141  O812      0.54271      .   S
    Zr45   O813      0.54251  1_455   S
    Zr143  O813      0.54251      .   S
    Zr95   O814      0.54271      .   S
    Zr189  O814      0.54271      .   S
    Zr93   O815      0.54251  1_455   S
    Zr191  O815      0.54251      .   S
    Zr190  O816      0.67993      .   S
    Zr326  O816      0.67993      .   S
    Zr188  O817      0.67994      .   S
    Zr324  O817      0.67994      .   S
    Zr140  O818      0.67995      .   S
    Zr252  O818      0.67995      .   S
    Zr141  O819      0.67994      .   S
    Zr253  O819      0.67994      .   S
    Zr142  O820      0.67995      .   S
    Zr254  O820      0.67995      .   S
    Zr143  O821      0.67995      .   S
    Zr255  O821      0.67995      .   S
    Zr191  O822      0.67993      .   S
    Zr327  O822      0.67993      .   S
    Zr189  O823      0.67992      .   S
    Zr325  O823      0.67992      .   S
    Zr185  O824      0.68053      .   S
    Zr325  O824      0.68053      .   S
    Zr185  O825      0.54306      .   S
    Zr89   O825      0.54306      .   S
    Zr139  O826      0.68056      .   S
    Zr255  O826      0.68056      .   S
    Zr139  O827      0.54284      .   S
    Zr43   O827      0.54284      .   S
    Zr137  O828      0.68054      .   S
    Zr253  O828      0.68054      .   S
    Zr137  O829      0.54307      .   S
    Zr41   O829      0.54307      .   S
    Zr187  O830      0.68053      .   S
    Zr327  O830      0.68053      .   S
    Zr187  O831      0.54306      .   S
    Zr91   O831      0.54306      .   S
    Zr186  O832      0.68054      .   S
    Zr326  O832      0.68054      .   S
    Zr186  O833      0.54295      .   S
    Zr90   O833      0.54295      .   S
    Zr184  O834      0.68054      .   S
    Zr324  O834      0.68054      .   S
    Zr184  O835      0.54307      .   S
    Zr88   O835      0.54307      .   S
    Zr136  O836      0.68053      .   S
    Zr252  O836      0.68053      .   S
    Zr136  O837      0.54305      .   S
    Zr40   O837      0.54305      .   S
    Zr138  O838      0.68054      .   S
    Zr254  O838      0.68054      .   S
    Zr138  O839      0.54305      .   S
    Zr42   O839      0.54305      .   S
    Zr376  O840      0.69035      .   S
    Zr372  O840      0.69035      .   S
    Zr376  O841      0.66522      .   S
    Zr220  O841      0.66522      .   S
    Zr377  O842      0.69013      .   S
    Zr373  O842      0.69013      .   S
    Zr377  O843      0.66485      .   S
    Zr221  O843      0.66485      .   S
    Zr379  O844      0.69013      .   S
    Zr375  O844      0.69013      .   S
    Zr379  O845      0.66485      .   S
    Zr223  O845      0.66485      .   S
    Zr378  O846      0.69029      .   S
    Zr374  O846      0.69029      .   S
    Zr378  O847      0.66488      .   S
    Zr222  O847      0.66488      .   S
    Zr327  O848      1.13347      .   S
    Zr7    O848      1.13347      .   S
    Zr253  O849      1.13337      .   S
    Zr5    O849      1.13337      .   S
    Zr255  O850      1.13341      .   S
    Zr7    O850      1.13341      .   S
    Zr325  O851      1.13342      .   S
    Zr5    O851      1.13342      .   S
    Zr324  O852      1.13354      .   S
    Zr4    O852      1.13354      .   S
    Zr326  O853      1.13354      .   S
    Zr6    O853      1.13354      .   S
    Zr252  O854      1.13355      .   S
    Zr4    O854      1.13355      .   S
    Zr254  O855      1.13355      .   S
    Zr6    O855      1.13355      .   S
    Zr373  O856      0.66751      .   S
    Zr217  O856      0.66751      .   S
    Zr375  O857      0.66751      .   S
    Zr219  O857      0.66751      .   S
    Zr372  O858      0.66696      .   S
    Zr216  O858      0.66696      .   S
    Zr374  O859      0.66696      .   S
    Zr218  O859      0.66696      .   S
    Zr221  O860      0.54246      .   S
    Zr127  O860      0.54246  1_655   S
    Zr221  O861      0.68022      .   S
    Zr381  O861      0.68022      .   S
    Zr223  O862      0.54267      .   S
    Zr125  O862      0.54267      .   S
    Zr223  O863      0.68022      .   S
    Zr383  O863      0.68022      .   S
    Zr222  O864      0.54266      .   S
    Zr124  O864      0.54266      .   S
    Zr222  O865      0.68000      .   S
    Zr382  O865      0.68000      .   S
    Zr220  O866      0.54245      .   S
    Zr126  O866      0.54245  1_655   S
    Zr220  O867      0.68000      .   S
    Zr380  O867      0.68000      .   S
    Zr5    O868      1.40928      .   S
    Zr231  O868      1.40928      .   S
    Zr7    O869      1.40907  1_655   S
    Zr229  O869      1.40907      .   S
    Zr4    O870      1.40928      .   S
    Zr230  O870      1.40928      .   S
    Zr6    O871      1.40907  1_655   S
    Zr228  O871      1.40907      .   S
    Zr219  O872      0.54347      .   S
    Zr123  O872      0.54347      .   S
    Zr219  O873      0.68078      .   S
    Zr383  O873      0.68078      .   S
    Zr217  O874      0.54347      .   S
    Zr121  O874      0.54347      .   S
    Zr217  O875      0.68078      .   S
    Zr381  O875      0.68078      .   S
    Zr218  O876      0.54333      .   S
    Zr122  O876      0.54333      .   S
    Zr218  O877      0.68050      .   S
    Zr382  O877      0.68050      .   S
    Zr216  O878      0.54334      .   S
    Zr120  O878      0.54334      .   S
    Zr216  O879      0.68050      .   S
    Zr380  O879      0.68050      .   S
