# CIF file generated by openbabel 2.4.90, see http://openbabel.sf.net
data_I
_chemical_name_common ''
_cell_length_a 21.028
_cell_length_b 18.14
_cell_length_c 18.136
_cell_angle_alpha 119.953
_cell_angle_beta 89.998
_cell_angle_gamma 89.995
_space_group_name_H-M_alt 'P 1'
_space_group_name_Hall 'P 1'
loop_
    _symmetry_equiv_pos_as_xyz
    x,y,z
loop_
    _atom_site_label
    _atom_site_type_symbol
    _atom_site_fract_x
    _atom_site_fract_y
    _atom_site_fract_z
    _atom_site_occupancy
    Lv0     Lv   0.64016   0.44124   0.50487   1.000
    Lv1     Lv   0.22339   0.93623   0.44147   1.000
    Lv2     Lv   0.55673   0.50512   0.06365   1.000
    Lv3     Lv   0.47341   0.06370   0.55850   1.000
    Lv4     Lv   0.30672   0.49488   0.93631   1.000
    Lv5     Lv   0.80677   0.49479   0.93630   1.000
    Lv6     Lv   0.39019   0.55869   0.49504   1.000
    Lv7     Lv   0.05676   0.50495   0.06365   1.000
    Lv8     Lv   0.97337   0.06366   0.55860   1.000
    Lv9     Lv   0.14018   0.44132   0.50500   1.000
    Lv10    Lv   0.89016   0.55861   0.49495   1.000
    Lv11    Lv   0.72343   0.93622   0.44129   1.000
