# CIF file generated by openbabel 2.4.90, see http://openbabel.sf.net
data_I
_chemical_name_common ''
_cell_length_a 21.028
_cell_length_b 18.14
_cell_length_c 18.136
_cell_angle_alpha 119.953
_cell_angle_beta 89.998
_cell_angle_gamma 89.995
_space_group_name_H-M_alt 'P 1'
_space_group_name_Hall 'P 1'
loop_
    _symmetry_equiv_pos_as_xyz
    x,y,z
loop_
    _atom_site_label
    _atom_site_type_symbol
    _atom_site_fract_x
    _atom_site_fract_y
    _atom_site_fract_z
    _atom_site_occupancy
    H0      H    0.32828   0.47917   0.92819   1.000
    H1      H    0.82832   0.47906   0.92819   1.000
    H2      H    0.16174   0.44890   0.52073   1.000
    H3      H    0.66172   0.44879   0.52058   1.000
    H4      H    0.49497   0.07181   0.55087   1.000
    H5      H    0.99494   0.07178   0.55100   1.000
    H6      H    0.07832   0.52066   0.07176   1.000
    H7      H    0.57829   0.52083   0.07176   1.000
    H8      H    0.41175   0.55111   0.47932   1.000
    H9      H    0.91172   0.55104   0.47924   1.000
    H10     H    0.24495   0.92811   0.44908   1.000
    H11     H    0.74499   0.92812   0.44890   1.000
    N12     N    0.28515   0.51059   0.94443   1.000
    N13     N    0.78521   0.51051   0.94442   1.000
    N14     N    0.11862   0.43374   0.48927   1.000
    N15     N    0.61859   0.43369   0.48917   1.000
    N16     N    0.45186   0.05559   0.56613   1.000
    N17     N    0.95181   0.05555   0.56620   1.000
    N18     N    0.03520   0.48924   0.05555   1.000
    N19     N    0.53517   0.48941   0.05554   1.000
    N20     N    0.36863   0.56627   0.51076   1.000
    N21     N    0.86859   0.56617   0.51067   1.000
    N22     N    0.20183   0.94435   0.43386   1.000
    N23     N    0.70186   0.94433   0.43369   1.000
loop_
    _geom_bond_atom_site_label_1
    _geom_bond_atom_site_label_2
    _geom_bond_distance
    _geom_bond_site_symmetry_2
    _ccdc_geom_bond_type
    N19    H7        1.03267      .   S
    N18    H6        1.03271      .   S
    N23    H11       1.03253      .   S
    N22    H10       1.03269      .   S
    H9     N21       1.03265      .   S
    H8     N20       1.03263      .   S
    N15    H3        1.03265      .   S
    N14    H2        1.03267      .   S
    H4     N16       1.03266      .   S
    H5     N17       1.03272      .   S
    H0     N12       1.03267      .   S
    H1     N13       1.03268      .   S
