# CIF file generated by openbabel 2.4.90, see http://openbabel.sf.net
data_I
_chemical_name_common ''
_cell_length_a 21.028
_cell_length_b 18.14
_cell_length_c 18.136
_cell_angle_alpha 119.953
_cell_angle_beta 89.998
_cell_angle_gamma 89.995
_space_group_name_H-M_alt 'P 1'
_space_group_name_Hall 'P 1'
loop_
    _symmetry_equiv_pos_as_xyz
    x,y,z
loop_
    _atom_site_label
    _atom_site_type_symbol
    _atom_site_fract_x
    _atom_site_fract_y
    _atom_site_fract_z
    _atom_site_occupancy
    H0      H    0.34605   0.37502   0.79549   1.000
    H1      H    0.84605   0.37490   0.79544   1.000
    H2      H    0.28190   0.37437   0.73148   1.000
    H3      H    0.78191   0.37430   0.73145   1.000
    H4      H    0.30626   0.27820   0.72595   1.000
    H5      H    0.80622   0.27811   0.72592   1.000
    H6      H    0.20771   0.32633   0.80610   1.000
    H7      H    0.70769   0.32632   0.80613   1.000
    H8      H    0.28412   0.25222   0.84970   1.000
    H9      H    0.78407   0.25215   0.84966   1.000
    H10     H    0.23816   0.32590   0.93788   1.000
    H11     H    0.73810   0.32582   0.93783   1.000
    H12     H    0.31757   0.35092   0.92835   1.000
    H13     H    0.81752   0.35083   0.92834   1.000
    H14     H    0.21322   0.47416   0.85062   1.000
    H15     H    0.71330   0.47415   0.85059   1.000
    H16     H    0.32943   0.62701   0.98080   1.000
    H17     H    0.82959   0.62685   0.98076   1.000
    H18     H    0.24704   0.62341   0.95623   1.000
    H19     H    0.74720   0.62340   0.95626   1.000
    H20     H    0.40824   0.53646   0.85444   1.000
    H21     H    0.90828   0.53610   0.85424   1.000
    H22     H    0.21598   0.59407   0.81372   1.000
    H23     H    0.71609   0.59420   0.81380   1.000
    H24     H    0.24781   0.54971   0.66455   1.000
    H25     H    0.74785   0.54981   0.66460   1.000
    H26     H    0.43149   0.49525   0.70442   1.000
    H27     H    0.93146   0.49487   0.70421   1.000
    H28     H    0.32828   0.47917   0.92819   1.000
    H29     H    0.82832   0.47906   0.92819   1.000
    H30     H    0.17955   0.42031   0.62489   1.000
    H31     H    0.67959   0.42026   0.62475   1.000
    H32     H    0.11554   0.35670   0.62538   1.000
    H33     H    0.61558   0.35669   0.62532   1.000
    H34     H    0.13971   0.44726   0.72165   1.000
    H35     H    0.63980   0.44726   0.72155   1.000
    H36     H    0.04109   0.47905   0.67339   1.000
    H37     H    0.54115   0.47908   0.67337   1.000
    H38     H    0.11722   0.59688   0.74773   1.000
    H39     H    0.61731   0.59687   0.74762   1.000
    H40     H    0.07123   0.61137   0.67400   1.000
    H41     H    0.57131   0.61135   0.67389   1.000
    H42     H    0.15072   0.57718   0.64910   1.000
    H43     H    0.65079   0.57711   0.64895   1.000
    H44     H    0.04680   0.37603   0.52553   1.000
    H45     H    0.54679   0.37602   0.52551   1.000
    H46     H    0.16307   0.35403   0.37280   1.000
    H47     H    0.66294   0.35396   0.37271   1.000
    H48     H    0.08067   0.33296   0.37622   1.000
    H49     H    0.58055   0.33294   0.37617   1.000
    H50     H    0.24169   0.31795   0.46350   1.000
    H51     H    0.74167   0.31778   0.46313   1.000
    H52     H    0.04948   0.21962   0.40534   1.000
    H53     H    0.54939   0.21965   0.40539   1.000
    H54     H    0.08119   0.11471   0.44960   1.000
    H55     H    0.58114   0.11473   0.44969   1.000
    H56     H    0.26481   0.20905   0.50466   1.000
    H57     H    0.76484   0.20886   0.50424   1.000
    H58     H    0.16174   0.44890   0.52073   1.000
    H59     H    0.66172   0.44879   0.52058   1.000
    H60     H    0.01274   0.20425   0.57915   1.000
    H61     H    0.51271   0.20436   0.57905   1.000
    H62     H    0.44860   0.26841   0.64240   1.000
    H63     H    0.94863   0.26834   0.64245   1.000
    H64     H    0.47288   0.27389   0.55160   1.000
    H65     H    0.97300   0.27380   0.55174   1.000
    H66     H    0.37433   0.19378   0.51989   1.000
    H67     H    0.87441   0.19374   0.51986   1.000
    H68     H    0.45065   0.15013   0.40216   1.000
    H69     H    0.95080   0.15002   0.40219   1.000
    H70     H    0.40468   0.06202   0.38791   1.000
    H71     H    0.90479   0.06194   0.38792   1.000
    H72     H    0.48412   0.07149   0.42233   1.000
    H73     H    0.98421   0.07139   0.42243   1.000
    H74     H    0.37991   0.14937   0.62338   1.000
    H75     H    0.87986   0.14935   0.62338   1.000
    H76     H    0.49624   0.01925   0.64621   1.000
    H77     H    0.99606   0.01912   0.64629   1.000
    H78     H    0.41384   0.04377   0.66722   1.000
    H79     H    0.91367   0.04375   0.66725   1.000
    H80     H    0.07487   0.14555   0.68200   1.000
    H81     H    0.57491   0.14581   0.68179   1.000
    H82     H    0.38276   0.18608   0.78038   1.000
    H83     H    0.88263   0.18613   0.78030   1.000
    H84     H    0.41453   0.33516   0.88522   1.000
    H85     H    0.91448   0.33516   0.88517   1.000
    H86     H    0.09814   0.29541   0.79085   1.000
    H87     H    0.59811   0.29570   0.79063   1.000
    C88     C    0.73190   0.45349   0.89425   1.000
    C89     C    0.29200   0.58789   0.93599   1.000
    C90     C    0.79212   0.58780   0.93596   1.000
    C91     C    0.30914   0.56754   0.84692   1.000
    H92     H    0.49497   0.07181   0.55087   1.000
    H93     H    0.99494   0.07178   0.55100   1.000
    H94     H    0.09612   0.62476   0.20442   1.000
    H95     H    0.59601   0.62499   0.20455   1.000
    H96     H    0.03201   0.62542   0.26850   1.000
    H97     H    0.53184   0.62560   0.26852   1.000
    H98     H    0.05635   0.72159   0.27401   1.000
    H99     H    0.55617   0.72179   0.27400   1.000
    H100    H    0.45767   0.67364   0.19382   1.000
    H101    H    0.95777   0.67350   0.19392   1.000
    H102    H    0.03414   0.74760   0.15031   1.000
    H103    H    0.53409   0.74777   0.15032   1.000
    H104    H    0.48815   0.67411   0.06212   1.000
    H105    H    0.98814   0.67397   0.06218   1.000
    H106    H    0.06755   0.64889   0.07160   1.000
    H107    H    0.56757   0.64908   0.07166   1.000
    H108    H    0.46323   0.52581   0.14935   1.000
    H109    H    0.96330   0.52566   0.14940   1.000
    H110    H    0.07955   0.37286   0.01916   1.000
    H111    H    0.57949   0.37301   0.01914   1.000
    H112    H    0.99717   0.37637   0.04374   1.000
    H113    H    0.49710   0.37656   0.04372   1.000
    H114    H    0.15832   0.46344   0.14557   1.000
    H115    H    0.65823   0.46368   0.14559   1.000
    H116    H    0.46603   0.40577   0.18619   1.000
    H117    H    0.96608   0.40576   0.18626   1.000
    H118    H    0.99787   0.45023   0.33547   1.000
    H119    H    0.49784   0.45014   0.33537   1.000
    C120    C    0.04942   0.65317   0.23049   1.000
    C121    C    0.54929   0.65337   0.23050   1.000
    C122    C    0.50162   0.64052   0.16135   1.000
    H123    H    0.18152   0.50476   0.29561   1.000
    H124    H    0.68145   0.50490   0.29560   1.000
    H125    H    0.07832   0.52066   0.07176   1.000
    H126    H    0.57829   0.52083   0.07176   1.000
    H127    H    0.42961   0.57971   0.37518   1.000
    H128    H    0.92955   0.57963   0.37504   1.000
    H129    H    0.36561   0.64334   0.37468   1.000
    H130    H    0.86552   0.64323   0.37455   1.000
    H131    H    0.38981   0.55278   0.27841   1.000
    H132    H    0.88972   0.55267   0.27828   1.000
    H133    H    0.29116   0.52100   0.32662   1.000
    H134    H    0.79111   0.52084   0.32652   1.000
    H135    H    0.36730   0.40317   0.25228   1.000
    H136    H    0.86729   0.40306   0.25220   1.000
    H137    H    0.32130   0.38866   0.32590   1.000
    H138    H    0.82132   0.38854   0.32593   1.000
    H139    H    0.40078   0.42285   0.35090   1.000
    H140    H    0.90079   0.42278   0.35084   1.000
    H141    H    0.29681   0.62398   0.47448   1.000
    H142    H    0.79678   0.62388   0.47439   1.000
    H143    H    0.41303   0.64596   0.62717   1.000
    H144    H    0.91297   0.64587   0.62710   1.000
    H145    H    0.33064   0.66705   0.62379   1.000
    H146    H    0.83058   0.66693   0.62370   1.000
    H147    H    0.49173   0.68210   0.53669   1.000
    H148    H    0.99164   0.68194   0.53652   1.000
    H149    H    0.29946   0.78034   0.59458   1.000
    H150    H    0.79943   0.78033   0.59464   1.000
    H151    H    0.33120   0.88522   0.55023   1.000
    H152    H    0.83117   0.88525   0.55034   1.000
    H153    H    0.01480   0.79086   0.49540   1.000
    H154    H    0.51488   0.79099   0.49554   1.000
    H155    H    0.41175   0.55111   0.47932   1.000
    H156    H    0.91172   0.55104   0.47924   1.000
    H157    H    0.26273   0.79556   0.42088   1.000
    H158    H    0.76285   0.79570   0.42084   1.000
    H159    H    0.19861   0.73154   0.35754   1.000
    H160    H    0.69880   0.73156   0.35746   1.000
    H161    H    0.22291   0.72601   0.44824   1.000
    H162    H    0.72310   0.72612   0.44820   1.000
    H163    H    0.12436   0.80615   0.48012   1.000
    H164    H    0.62447   0.80609   0.47995   1.000
    H165    H    0.20072   0.84975   0.59778   1.000
    H166    H    0.70076   0.84985   0.59771   1.000
    H167    H    0.15474   0.93788   0.61210   1.000
    H168    H    0.65473   0.93791   0.61194   1.000
    H169    H    0.23416   0.92840   0.57761   1.000
    H170    H    0.73417   0.92851   0.57750   1.000
    H171    H    0.12989   0.85057   0.37663   1.000
    H172    H    0.62997   0.85049   0.37646   1.000
    H173    H    0.24615   0.98072   0.35377   1.000
    H174    H    0.74619   0.98071   0.35361   1.000
    H175    H    0.16375   0.95619   0.33280   1.000
    H176    H    0.66380   0.95616   0.33263   1.000
    H177    H    0.32487   0.85418   0.31813   1.000
    H178    H    0.82496   0.85422   0.31788   1.000
    H179    H    0.13268   0.81387   0.21968   1.000
    H180    H    0.63271   0.81378   0.21962   1.000
    H181    H    0.16448   0.66480   0.11483   1.000
    H182    H    0.66451   0.66469   0.11483   1.000
    H183    H    0.34809   0.70429   0.20920   1.000
    H184    H    0.84818   0.70431   0.20910   1.000
    H185    H    0.24495   0.92811   0.44908   1.000
    H186    H    0.74499   0.92812   0.44890   1.000
    C187    C    0.29934   0.34662   0.76947   1.000
    C188    C    0.79934   0.34654   0.76944   1.000
    C189    C    0.25164   0.35948   0.83864   1.000
    C190    C    0.75164   0.35943   0.83862   1.000
    C191    C    0.27433   0.32026   0.89166   1.000
    C192    C    0.77429   0.32018   0.89163   1.000
    C193    C    0.23187   0.45351   0.89427   1.000
    C194    C    0.80921   0.56742   0.84687   1.000
    C195    C    0.37053   0.54009   0.81501   1.000
    C196    C    0.87057   0.53983   0.81487   1.000
    C197    C    0.26436   0.57224   0.79234   1.000
    C198    C    0.76444   0.57225   0.79235   1.000
    C199    C    0.28144   0.54784   0.70915   1.000
    C200    C    0.78148   0.54784   0.70910   1.000
    C201    C    0.38428   0.51663   0.73123   1.000
    C202    C    0.88428   0.51637   0.73100   1.000
    C203    C    0.13284   0.42246   0.65320   1.000
    C204    C    0.63289   0.42244   0.65311   1.000
    C205    C    0.08502   0.47864   0.64034   1.000
    C206    C    0.58507   0.47863   0.64020   1.000
    C207    C    0.10750   0.57091   0.67960   1.000
    C208    C    0.60757   0.57089   0.67956   1.000
    C209    C    0.06533   0.44036   0.54625   1.000
    C210    C    0.56532   0.44033   0.54620   1.000
    C211    C    0.12557   0.34818   0.41187   1.000
    C212    C    0.62548   0.34813   0.41175   1.000
    C213    C    0.14262   0.27936   0.43215   1.000
    C214    C    0.64256   0.27930   0.43199   1.000
    C215    C    0.20396   0.27487   0.45975   1.000
    C216    C    0.70393   0.27474   0.45945   1.000
    C217    C    0.09783   0.22004   0.42728   1.000
    C218    C    0.59776   0.22003   0.42720   1.000
    C219    C    0.11484   0.16119   0.45166   1.000
    C220    C    0.61479   0.16117   0.45158   1.000
    C221    C    0.21764   0.21449   0.48316   1.000
    C222    C    0.71764   0.21435   0.48284   1.000
    C223    C    0.46600   0.23040   0.57669   1.000
    C224    C    0.96606   0.23032   0.57675   1.000
    C225    C    0.41827   0.16127   0.52055   1.000
    C226    C    0.91833   0.16121   0.52057   1.000
    C227    C    0.44088   0.10820   0.42834   1.000
    C228    C    0.94099   0.10811   0.42839   1.000
    C229    C    0.39854   0.10571   0.55914   1.000
    C230    C    0.89852   0.10568   0.55916   1.000
    C231    C    0.45877   0.06405   0.65188   1.000
    C232    C    0.95864   0.06397   0.65194   1.000
    C233    C    0.47586   0.15310   0.72051   1.000
    C234    C    0.97578   0.15300   0.72059   1.000
    C235    C    0.03716   0.18492   0.72505   1.000
    C236    C    0.53720   0.18513   0.72489   1.000
    C237    C    0.43110   0.20755   0.77987   1.000
    C238    C    0.93101   0.20752   0.77987   1.000
    C239    C    0.44815   0.29068   0.83870   1.000
    C240    C    0.94810   0.29063   0.83870   1.000
    C241    C    0.05093   0.26861   0.78542   1.000
    C242    C    0.55093   0.26883   0.78526   1.000
    C243    C    0.00000   0.64034   0.16137   1.000
    C244    C    0.02433   0.67957   0.10830   1.000
    C245    C    0.52432   0.67974   0.10834   1.000
    C246    C    0.48187   0.54648   0.10571   1.000
    C247    C    0.98192   0.54630   0.10576   1.000
    C248    C    0.04210   0.41194   0.06399   1.000
    C249    C    0.54204   0.41210   0.06397   1.000
    C250    C    0.05922   0.43231   0.15307   1.000
    C251    C    0.55915   0.43246   0.15305   1.000
    C252    C    0.12060   0.45981   0.18500   1.000
    C253    C    0.62052   0.46000   0.18500   1.000
    C254    C    0.01444   0.42762   0.20765   1.000
    C255    C    0.51439   0.42767   0.20760   1.000
    C256    C    0.03150   0.45209   0.29080   1.000
    C257    C    0.53146   0.45207   0.29079   1.000
    C258    C    0.13433   0.48332   0.26879   1.000
    C259    C    0.63426   0.48344   0.26877   1.000
    C260    C    0.38291   0.57758   0.34685   1.000
    C261    C    0.88284   0.57748   0.34673   1.000
    C262    C    0.33508   0.52139   0.35969   1.000
    C263    C    0.83504   0.52127   0.35959   1.000
    C264    C    0.35756   0.42912   0.32034   1.000
    C265    C    0.85756   0.42901   0.32026   1.000
    C266    C    0.31535   0.55966   0.45376   1.000
    C267    C    0.81531   0.55956   0.45367   1.000
    C268    C    0.37555   0.65183   0.58817   1.000
    C269    C    0.87549   0.65172   0.58800   1.000
    C270    C    0.39263   0.72064   0.56790   1.000
    C271    C    0.89257   0.72055   0.56785   1.000
    C272    C    0.45399   0.72516   0.54039   1.000
    C273    C    0.95391   0.72503   0.54027   1.000
    C274    C    0.34783   0.77993   0.57270   1.000
    C275    C    0.84778   0.77989   0.57271   1.000
    C276    C    0.36485   0.83877   0.54832   1.000
    C277    C    0.86481   0.83876   0.54837   1.000
    C278    C    0.46769   0.78553   0.51698   1.000
    C279    C    0.96762   0.78543   0.51689   1.000
    C280    C    0.21602   0.76952   0.42325   1.000
    C281    C    0.71616   0.76960   0.42318   1.000
    C282    C    0.16829   0.83866   0.47943   1.000
    C283    C    0.66837   0.83867   0.47930   1.000
    C284    C    0.19093   0.89170   0.57160   1.000
    C285    C    0.69096   0.89176   0.57151   1.000
    C286    C    0.14853   0.89423   0.44087   1.000
    C287    C    0.64858   0.89419   0.44070   1.000
    C288    C    0.20870   0.93592   0.34812   1.000
    C289    C    0.70874   0.93590   0.34795   1.000
    C290    C    0.22580   0.84687   0.27947   1.000
    C291    C    0.72586   0.84685   0.27932   1.000
    C292    C    0.28715   0.81485   0.27505   1.000
    C293    C    0.78723   0.81487   0.27485   1.000
    C294    C    0.18104   0.79241   0.22015   1.000
    C295    C    0.68108   0.79235   0.22000   1.000
    C296    C    0.19810   0.70928   0.16132   1.000
    C297    C    0.69814   0.70921   0.16127   1.000
    C298    C    0.30090   0.73115   0.21469   1.000
    C299    C    0.80097   0.73115   0.21453   1.000
    N300    N    0.28515   0.51059   0.94443   1.000
    N301    N    0.78521   0.51051   0.94442   1.000
    N302    N    0.34030   0.51955   0.67817   1.000
    N303    N    0.84030   0.51941   0.67809   1.000
    N304    N    0.11862   0.43374   0.48927   1.000
    N305    N    0.61859   0.43369   0.48917   1.000
    N306    N    0.17365   0.15848   0.48007   1.000
    N307    N    0.67364   0.15839   0.47986   1.000
    N308    N    0.45186   0.05559   0.56613   1.000
    N309    N    0.95181   0.05555   0.56620   1.000
    N310    N    0.00696   0.32160   0.84140   1.000
    N311    N    0.50696   0.32174   0.84131   1.000
    N312    N    0.03520   0.48924   0.05555   1.000
    N313    N    0.53517   0.48941   0.05554   1.000
    N314    N    0.09034   0.48043   0.32185   1.000
    N315    N    0.59029   0.48045   0.32180   1.000
    N316    N    0.36863   0.56627   0.51076   1.000
    N317    N    0.86859   0.56617   0.51067   1.000
    N318    N    0.42369   0.84151   0.51998   1.000
    N319    N    0.92364   0.84146   0.51990   1.000
    N320    N    0.20183   0.94435   0.43386   1.000
    N321    N    0.70186   0.94433   0.43369   1.000
    N322    N    0.25693   0.67823   0.15866   1.000
    N323    N    0.75699   0.67819   0.15858   1.000
loop_
    _geom_bond_atom_site_label_1
    _geom_bond_atom_site_label_2
    _geom_bond_distance
    _geom_bond_site_symmetry_2
    _ccdc_geom_bond_type
    H111   C249      1.09915      .   S
    H110   C248      1.09912      .   S
    H113   C249      1.09879      .   S
    H112   C248      1.09879  1_655   S
    N313   C249      1.49161      .   S
    N313   H126      1.03267      .   S
    N313   C246      1.48815      .   S
    N312   C248      1.49167      .   S
    N312   H125      1.03271      .   S
    N312   C247      1.48808  1_455   S
    H104   C245      1.09811      .   S
    H105   C244      1.09746  1_655   S
    C249   C251      1.51003      .   S
    C248   C250      1.50999      .   S
    H106   C244      1.09939      .   S
    H107   C245      1.09972      .   S
    C246   H108      1.10311      .   S
    C246   C122      1.54335      .   S
    C247   H109      1.10254      .   S
    C247   C243      1.53423  1_655   S
    C244   H102      1.09861      .   S
    C244   C243      1.54233      .   S
    C245   H103      1.09850      .   S
    C245   C122      1.53022      .   S
    H182   C297      1.08752      .   S
    H181   C296      1.08749      .   S
    H114   C252      1.09166      .   S
    H115   C253      1.09165      .   S
    C251   C253      1.40055      .   S
    C251   C255      1.39927      .   S
    C250   C252      1.40057      .   S
    C250   C254      1.39924      .   S
    N323   C297      1.35005      .   S
    N323   C299      1.35465      .   S
    N322   C296      1.35007      .   S
    N322   C298      1.35465      .   S
    C297   C295      1.39052      .   S
    C296   C294      1.39080      .   S
    C122   H100      1.09934      .   S
    C122   C121      1.52973      .   S
    C243   H101      1.06968  1_455   S
    C243   C120      1.55380      .   S
    C253   C259      1.38828      .   S
    C252   C258      1.38825      .   S
    H116   C255      1.09028      .   S
    H117   C254      1.09014  1_655   S
    H94    C120      1.10001      .   S
    H95    C121      1.09983      .   S
    C255   C257      1.39077      .   S
    C254   C256      1.38974      .   S
    H184   C299      1.08812      .   S
    H183   C298      1.08792      .   S
    C299   C293      1.38830      .   S
    C298   C292      1.38827      .   S
    H180   C295      1.09006      .   S
    H179   C294      1.09028      .   S
    C295   C291      1.39986      .   S
    C294   C290      1.39937      .   S
    C120   H96       1.09958      .   S
    C120   H98       1.09837      .   S
    C121   H97       1.10026      .   S
    C121   H99       1.09829      .   S
    H136   C265      1.09852      .   S
    H135   C264      1.09857      .   S
    C259   H124      1.08811      .   S
    C259   N315      1.35457      .   S
    C258   H123      1.08809      .   S
    C258   N314      1.35456      .   S
    C293   C291      1.40058      .   S
    C293   H178      1.09169      .   S
    C292   C290      1.40061      .   S
    C292   H177      1.09166      .   S
    H132   C261      1.09848      .   S
    H131   C260      1.09838      .   S
    C291   C289      1.51003      .   S
    C290   C288      1.51006      .   S
    C257   N315      1.35008      .   S
    C257   H119      1.08758      .   S
    C256   N314      1.35034      .   S
    C256   H118      1.08845  1_455   S
    C265   H138      1.09814      .   S
    C265   H140      1.09966      .   S
    C265   C263      1.53024      .   S
    C264   H137      1.09745      .   S
    C264   H139      1.09950      .   S
    C264   C262      1.53023      .   S
    H134   C263      1.09929      .   S
    H133   C262      1.09932      .   S
    H176   C289      1.09879      .   S
    H175   C288      1.09893      .   S
    C261   C263      1.53028      .   S
    C261   H130      1.09949      .   S
    C261   H128      1.10000      .   S
    C260   C262      1.53032      .   S
    C260   H129      1.09949      .   S
    C260   H127      1.09998      .   S
    C289   H174      1.09913      .   S
    C289   N321      1.49153      .   S
    C288   H173      1.09912      .   S
    C288   N320      1.49153      .   S
    H160   C281      1.09949      .   S
    H159   C280      1.09952      .   S
    C263   C267      1.54347      .   S
    C262   C266      1.54333      .   S
    H47    C212      1.09909      .   S
    H46    C211      1.10016      .   S
    H49    C212      1.09880      .   S
    H48    C211      1.09878      .   S
    H172   C287      1.10305      .   S
    H171   C286      1.10309      .   S
    H70    C227      1.09807      .   S
    H71    C228      1.09814      .   S
    H68    C227      1.09847      .   S
    H69    C228      1.09856      .   S
    H52    C217      1.09028      .   S
    H53    C218      1.09015      .   S
    C212   C214      1.51007      .   S
    C212   N305      1.49168      .   S
    C211   C213      1.51010      .   S
    C211   N304      1.49171      .   S
    H158   C281      1.10000      .   S
    H157   C280      1.10004      .   S
    H72    C227      1.09970      .   S
    H73    C228      1.09967      .   S
    C281   H162      1.09842      .   S
    C281   C283      1.53033      .   S
    C280   H161      1.09842      .   S
    C280   C282      1.53031      .   S
    C218   C214      1.39922      .   S
    C218   C220      1.39114      .   S
    C217   C213      1.39939      .   S
    C217   C219      1.39085      .   S
    C227   C225      1.53027      .   S
    C228   C226      1.53023      .   S
    C214   C216      1.40054      .   S
    C213   C215      1.40055      .   S
    N321   C287      1.48820      .   S
    N321   H186      1.03253      .   S
    N320   C286      1.48819      .   S
    N320   H185      1.03269      .   S
    C287   C283      1.54336      .   S
    C286   C282      1.54336      .   S
    H54    C219      1.08699      .   S
    H55    C220      1.08756      .   S
    C220   N307      1.35008      .   S
    C219   N306      1.35006      .   S
    C267   H142      1.10300      .   S
    C267   N317      1.48813      .   S
    C266   H141      1.10301      .   S
    C266   N316      1.48807      .   S
    C216   H51       1.09166      .   S
    C216   C222      1.38825      .   S
    C215   H50       1.09169      .   S
    C215   C221      1.38823      .   S
    H156   N317      1.03265      .   S
    C283   H164      1.09931      .   S
    C283   C285      1.53027      .   S
    H155   N316      1.03263      .   S
    C282   H163      1.09935      .   S
    C282   C284      1.52996      .   S
    N307   C222      1.35458      .   S
    N306   C221      1.35453      .   S
    C222   H57       1.08813      .   S
    C221   H56       1.08811      .   S
    N305   H59       1.03265      .   S
    N305   C210      1.48811      .   S
    N304   H58       1.03267      .   S
    N304   C209      1.48804      .   S
    H153   C279      1.08808  1_455   S
    H154   C278      1.08813      .   S
    N317   C269      1.49100      .   S
    N316   C268      1.49170      .   S
    C279   N319      1.35500      .   S
    C279   C273      1.38827      .   S
    C278   N318      1.35458      .   S
    C278   C272      1.38819      .   S
    H67    C226      1.09933      .   S
    H66    C225      1.09935      .   S
    N319   C277      1.35062      .   S
    N318   C276      1.35008      .   S
    C225   C229      1.54346      .   S
    C225   C223      1.53026      .   S
    C226   C230      1.54343      .   S
    C226   C224      1.53030      .   S
    H45    C210      1.10296      .   S
    H44    C209      1.10302      .   S
    H148   C273      1.09168      .   S
    H147   C272      1.09165      .   S
    C273   C271      1.40056      .   S
    C272   C270      1.40054      .   S
    C210   C206      1.54231      .   S
    C209   C205      1.54348      .   S
    C276   H151      1.08756      .   S
    C276   C274      1.39078      .   S
    C277   H152      1.08756      .   S
    C277   C275      1.39076      .   S
    H92    N308      1.03266      .   S
    H93    N309      1.03272      .   S
    H64    C223      1.09938      .   S
    H65    C224      1.09834      .   S
    C229   N308      1.48815      .   S
    C229   H74       1.10297      .   S
    C230   N309      1.48817      .   S
    C230   H75       1.10301      .   S
    N308   C231      1.49163      .   S
    N309   C232      1.49154      .   S
    C271   C275      1.39942      .   S
    C271   C269      1.50897      .   S
    C270   C274      1.39937      .   S
    C270   C268      1.51010      .   S
    C285   H170      1.09977      .   S
    C285   H166      1.09855      .   S
    C285   H168      1.09813      .   S
    C284   H169      1.09961      .   S
    C284   H165      1.09883      .   S
    C284   H167      1.09824      .   S
    C274   H149      1.09029      .   S
    C275   H150      1.09035      .   S
    C223   H61       1.10003      .   S
    C223   H62       1.09946      .   S
    C224   H60       1.09990  1_655   S
    C224   H63       1.09953      .   S
    C269   H146      1.09955      .   S
    C269   H144      1.10017      .   S
    C268   H145      1.09876      .   S
    C268   H143      1.09910      .   S
    H31    C204      1.10002      .   S
    H30    C203      1.09995      .   S
    H33    C204      1.09949      .   S
    H32    C203      1.09950      .   S
    C206   C204      1.53086      .   S
    C206   H37       1.09995      .   S
    C206   C208      1.53014      .   S
    C205   C203      1.53021      .   S
    C205   H36       1.09928      .   S
    C205   C207      1.53035      .   S
    H76    C231      1.09913      .   S
    H77    C232      1.09914      .   S
    H43    C208      1.09968      .   S
    H42    C207      1.09896      .   S
    C231   H78       1.09878      .   S
    C231   C233      1.51009      .   S
    C232   H79       1.09885      .   S
    C232   C234      1.51006      .   S
    C204   H35       1.09838      .   S
    C203   H34       1.09847      .   S
    H24    C199      1.08758      .   S
    H25    C200      1.08694      .   S
    H41    C208      1.09813      .   S
    H40    C207      1.09758      .   S
    N303   C200      1.34991      .   S
    N303   C202      1.35346      .   S
    N302   C199      1.35012      .   S
    N302   C201      1.35460      .   S
    C208   H39       1.09853      .   S
    C207   H38       1.09965      .   S
    H81    C236      1.09163      .   S
    H80    C235      1.09165      .   S
    H27    C202      1.08771      .   S
    H26    C201      1.08813      .   S
    C200   C198      1.39151      .   S
    C199   C197      1.39074      .   S
    C233   C236      1.40062      .   S
    C233   C237      1.39940      .   S
    C234   C235      1.40050  1_655   S
    C234   C238      1.39935      .   S
    C236   C242      1.38832      .   S
    C235   C241      1.38833      .   S
    H5     C188      1.09837      .   S
    H4     C187      1.09839      .   S
    C202   C196      1.38976      .   S
    C201   C195      1.38840      .   S
    H3     C188      1.09950      .   S
    H2     C187      1.09950      .   S
    C188   H1        1.09999      .   S
    C188   C190      1.53029      .   S
    C187   H0        1.10000      .   S
    C187   C189      1.53032      .   S
    C238   H83       1.09022      .   S
    C238   C240      1.39076      .   S
    C237   H82       1.09027      .   S
    C237   C239      1.39082      .   S
    C242   H87       1.08814      .   S
    C242   N311      1.35456      .   S
    C241   H86       1.08814      .   S
    C241   N310      1.35463      .   S
    C197   H22       1.09028      .   S
    C197   C91       1.39926      .   S
    C198   H23       1.09030      .   S
    C198   C194      1.39938      .   S
    H6     C189      1.09954      .   S
    H7     C190      1.09933      .   S
    C196   C194      1.40055      .   S
    C196   H21       1.09159      .   S
    C195   C91       1.40053      .   S
    C195   H20       1.09167      .   S
    C190   C192      1.53024      .   S
    C190   C88       1.54340      .   S
    C189   C191      1.53022      .   S
    C189   C193      1.54337      .   S
    C239   N311      1.35009      .   S
    C239   H84       1.08754      .   S
    C240   N310      1.34997  1_655   S
    C240   H85       1.08756      .   S
    C194   C90       1.50996      .   S
    C91    C89       1.50996      .   S
    H9     C192      1.09850      .   S
    H8     C191      1.09849      .   S
    H15    C88       1.10310      .   S
    H14    C193      1.10310      .   S
    C192   H13       1.09966      .   S
    C192   H11       1.09819      .   S
    C191   H12       1.09970      .   S
    C191   H10       1.09816      .   S
    C88    N301      1.48816      .   S
    C193   N300      1.48816      .   S
    H28    N300      1.03267      .   S
    H29    N301      1.03268      .   S
    C90    N301      1.49170      .   S
    C90    H19       1.09880      .   S
    C90    H17       1.09913      .   S
    C89    N300      1.49165      .   S
    C89    H18       1.09880      .   S
    C89    H16       1.09889      .   S
