# CIF file generated by openbabel 2.4.90, see http://openbabel.sf.net
data_I
_chemical_name_common ''
_cell_length_a 21.028
_cell_length_b 18.14
_cell_length_c 18.136
_cell_angle_alpha 119.953
_cell_angle_beta 89.998
_cell_angle_gamma 89.995
_space_group_name_H-M_alt 'P 1'
_space_group_name_Hall 'P 1'
loop_
    _symmetry_equiv_pos_as_xyz
    x,y,z
loop_
    _atom_site_label
    _atom_site_type_symbol
    _atom_site_fract_x
    _atom_site_fract_y
    _atom_site_fract_z
    _atom_site_occupancy
    C0      C    0.34161   0.04783   0.51139   1.000
    C1      C    0.84161   0.04779   0.51134   1.000
    C2      C    0.17495   0.46349   0.95215   1.000
    C3      C    0.67496   0.46352   0.95211   1.000
    C4      C    0.00831   0.48812   0.53627   1.000
    C5      C    0.50832   0.48814   0.53627   1.000
    C6      C    0.42494   0.53645   0.04784   1.000
    C7      C    0.92497   0.53634   0.04792   1.000
    C8      C    0.25834   0.51188   0.46371   1.000
    C9      C    0.75831   0.51178   0.46364   1.000
    C10     C    0.09161   0.95213   0.48866   1.000
    C11     C    0.59163   0.95206   0.48847   1.000
    Br12    Br   0.29162   0.45921   0.13390   1.000
    Br13    Br   0.79151   0.45908   0.13386   1.000
    Br14    Br   0.12462   0.67479   0.54126   1.000
    Br15    Br   0.62472   0.67473   0.54110   1.000
    Br16    Br   0.45812   0.86609   0.32546   1.000
    Br17    Br   0.95825   0.86597   0.32552   1.000
    Br18    Br   0.04156   0.54060   0.86606   1.000
    Br19    Br   0.54157   0.54077   0.86604   1.000
    Br20    Br   0.37467   0.32524   0.45877   1.000
    Br21    Br   0.87469   0.32511   0.45872   1.000
    Br22    Br   0.20819   0.13387   0.67453   1.000
    Br23    Br   0.70818   0.13389   0.67436   1.000
    O24     O    0.12794   0.41556   0.91505   1.000
    O25     O    0.62793   0.41563   0.91499   1.000
    O26     O    0.17759   0.51865   0.03130   1.000
    O27     O    0.67760   0.51864   0.03127   1.000
    O28     O    0.46127   0.49854   0.58405   1.000
    O29     O    0.96125   0.49845   0.58000   1.000
    O30     O    0.01094   0.51253   0.48137   1.000
    O31     O    0.51094   0.51256   0.48138   1.000
    O32     O    0.29458   0.08492   0.50054   1.000
    O33     O    0.79460   0.08487   0.50040   1.000
    O34     O    0.34428   0.96870   0.48740   1.000
    O35     O    0.84428   0.96866   0.48739   1.000
    O36     O    0.37791   0.58437   0.08495   1.000
    O37     O    0.87795   0.58423   0.08508   1.000
    O38     O    0.42760   0.48132   0.96868   1.000
    O39     O    0.92762   0.48127   0.96874   1.000
    O40     O    0.21128   0.50155   0.41598   1.000
    O41     O    0.71127   0.50133   0.41584   1.000
    O42     O    0.26095   0.48749   0.51862   1.000
    O43     O    0.76094   0.48738   0.51854   1.000
    O44     O    0.04458   0.91506   0.49957   1.000
    O45     O    0.54462   0.91495   0.49933   1.000
    O46     O    0.09428   0.03127   0.51259   1.000
    O47     O    0.59429   0.03121   0.51249   1.000
loop_
    _geom_bond_atom_site_label_1
    _geom_bond_atom_site_label_2
    _geom_bond_distance
    _geom_bond_site_symmetry_2
    _ccdc_geom_bond_type
    O27    C3        1.27692  1_554   S
    O26    C2        1.27693  1_554   S
    C6     O36       1.26565      .   S
    C6     O38       1.27696  1_554   S
    C7     O37       1.26565      .   S
    C7     O39       1.27695  1_554   S
    O41    C9        1.26562      .   S
    O40    C8        1.26560      .   S
    C9     O43       1.27689      .   S
    C8     O42       1.27693      .   S
    O30    C4        1.27701      .   S
    O31    C5        1.27700      .   S
    O35    C1        1.27669  1_565   S
    O34    C0        1.27646  1_565   S
    C11    O45       1.26564      .   S
    C11    O47       1.27674  1_565   S
    C10    O44       1.26564      .   S
    C10    O46       1.27673  1_565   S
    O33    C1        1.26569      .   S
    O32    C0        1.26564      .   S
    C5     O28       1.26558      .   S
    C4     O29       1.22266  1_455   S
    O25    C3        1.26566      .   S
    O24    C2        1.26565      .   S
