# CIF file generated by openbabel 2.4.90, see http://openbabel.sf.net
data_I
_chemical_name_common ''
_cell_length_a 21.028
_cell_length_b 18.14
_cell_length_c 18.136
_cell_angle_alpha 119.953
_cell_angle_beta 89.998
_cell_angle_gamma 89.995
_space_group_name_H-M_alt 'P 1'
_space_group_name_Hall 'P 1'
loop_
    _symmetry_equiv_pos_as_xyz
    x,y,z
loop_
    _atom_site_label
    _atom_site_type_symbol
    _atom_site_fract_x
    _atom_site_fract_y
    _atom_site_fract_z
    _atom_site_occupancy
    C0      C    0.34161   0.04783   0.51139   1.000
    C1      C    0.84161   0.04779   0.51134   1.000
    C2      C    0.17495   0.46349   0.95215   1.000
    C3      C    0.67496   0.46352   0.95211   1.000
    C4      C    0.00831   0.48812   0.53627   1.000
    C5      C    0.50832   0.48814   0.53627   1.000
    C6      C    0.42494   0.53645   0.04784   1.000
    C7      C    0.92497   0.53634   0.04792   1.000
    C8      C    0.25834   0.51188   0.46371   1.000
    C9      C    0.75831   0.51178   0.46364   1.000
    C10     C    0.09161   0.95213   0.48866   1.000
    C11     C    0.59163   0.95206   0.48847   1.000
