# CIF file generated by openbabel 2.4.90, see http://openbabel.sf.net
data_I
_chemical_name_common ''
_cell_length_a 21.028
_cell_length_b 18.14
_cell_length_c 18.136
_cell_angle_alpha 119.953
_cell_angle_beta 89.998
_cell_angle_gamma 89.995
_space_group_name_H-M_alt 'P 1'
_space_group_name_Hall 'P 1'
loop_
    _symmetry_equiv_pos_as_xyz
    x,y,z
loop_
    _atom_site_label
    _atom_site_type_symbol
    _atom_site_fract_x
    _atom_site_fract_y
    _atom_site_fract_z
    _atom_site_occupancy
    Zr0     Zr   0.27785   0.55060   0.07570   1.000
    Zr1     Zr   0.77786   0.55052   0.07500   1.000
    Zr2     Zr   0.11120   0.52531   0.44960   1.000
    Zr3     Zr   0.61119   0.52526   0.44951   1.000
    Zr4     Zr   0.44453   0.92436   0.47506   1.000
    Zr5     Zr   0.94452   0.92433   0.47511   1.000
    Zr6     Zr   0.02785   0.44923   0.92431   1.000
    Zr7     Zr   0.52785   0.44938   0.92426   1.000
    Zr8     Zr   0.36119   0.47471   0.55044   1.000
    Zr9     Zr   0.86119   0.47459   0.55034   1.000
    Zr10    Zr   0.19451   0.07558   0.52495   1.000
    Zr11    Zr   0.69452   0.07553   0.52476   1.000
    Zr12    Zr   0.29162   0.45921   0.13390   1.000
    Zr13    Zr   0.79151   0.45908   0.13386   1.000
    Zr14    Zr   0.12462   0.67479   0.54126   1.000
    Zr15    Zr   0.62472   0.67473   0.54110   1.000
    Zr16    Zr   0.45812   0.86609   0.32546   1.000
    Zr17    Zr   0.95825   0.86597   0.32552   1.000
    Zr18    Zr   0.04156   0.54060   0.86606   1.000
    Zr19    Zr   0.54157   0.54077   0.86604   1.000
    Zr20    Zr   0.37467   0.32524   0.45877   1.000
    Zr21    Zr   0.87469   0.32511   0.45872   1.000
    Zr22    Zr   0.20819   0.13387   0.67453   1.000
    Zr23    Zr   0.70818   0.13389   0.67436   1.000
    O24     O    0.78468   0.50480   0.10443   1.000
    O25     O    0.28473   0.50491   0.10480   1.000
    O26     O    0.45132   0.89523   0.40026   1.000
    O27     O    0.95138   0.89515   0.40031   1.000
    O28     O    0.61796   0.60000   0.49530   1.000
    O29     O    0.11791   0.60005   0.49543   1.000
    O30     O    0.86794   0.39985   0.50453   1.000
    O31     O    0.36793   0.39997   0.50460   1.000
    O32     O    0.70135   0.10471   0.59956   1.000
    O33     O    0.20135   0.10472   0.59974   1.000
    O34     O    0.53471   0.49508   0.89515   1.000
    O35     O    0.03471   0.49491   0.89518   1.000
    N36     N    0.64016   0.44124   0.50487   1.000
    O37     O    0.62753   0.46036   0.48711   1.000
    O38     O    0.66728   0.18171   0.47100   1.000
    N39     N    0.22339   0.93623   0.44147   1.000
    O40     O    0.21078   0.97310   0.46044   1.000
    O41     O    0.25056   0.71039   0.18189   1.000
    N42     N    0.55673   0.50512   0.06365   1.000
    O43     O    0.54412   0.48726   0.02677   1.000
    O44     O    0.58392   0.47152   0.28962   1.000
    N45     N    0.47341   0.06370   0.55850   1.000
    O46     O    0.46080   0.02684   0.53955   1.000
    O47     O    0.50060   0.28958   0.81808   1.000
    N48     N    0.30672   0.49488   0.93631   1.000
    O49     O    0.29411   0.51274   0.97319   1.000
    O50     O    0.33391   0.52848   0.71034   1.000
    N51     N    0.80677   0.49479   0.93630   1.000
    O52     O    0.79415   0.51265   0.97301   1.000
    O53     O    0.83394   0.52835   0.71027   1.000
    N54     N    0.39019   0.55869   0.49504   1.000
    O55     O    0.37755   0.53959   0.51282   1.000
    O56     O    0.41733   0.81820   0.52885   1.000
    N57     N    0.05676   0.50495   0.06365   1.000
    O58     O    0.04414   0.48709   0.02679   1.000
    O59     O    0.08396   0.47147   0.28967   1.000
    N60     N    0.97337   0.06366   0.55860   1.000
    O61     O    0.96077   0.02680   0.53963   1.000
    O62     O    0.00056   0.28945   0.81815   1.000
    N63     N    0.14018   0.44132   0.50500   1.000
    O64     O    0.12755   0.46043   0.48722   1.000
    O65     O    0.16731   0.18178   0.47118   1.000
    N66     N    0.89016   0.55861   0.49495   1.000
    O67     O    0.87752   0.53949   0.51273   1.000
    O68     O    0.91729   0.81814   0.52882   1.000
    N69     N    0.72343   0.93622   0.44129   1.000
    O70     O    0.71081   0.97308   0.46026   1.000
    O71     O    0.75061   0.71035   0.18163   1.000
    C72     C    0.74351   0.50016   0.46601   1.000
    O73     O    0.78206   0.51362   0.43596   1.000
    O74     O    0.77729   0.49057   0.50022   1.000
    O75     O    0.70237   0.50673   0.44934   1.000
    C76     C    0.49351   0.49975   0.53390   1.000
    O77     O    0.52729   0.50933   0.49967   1.000
    O78     O    0.45237   0.49318   0.55057   1.000
    O79     O    0.53207   0.48628   0.56393   1.000
    C80     C    0.99350   0.49970   0.53255   1.000
    O81     O    0.02729   0.50931   0.49902   1.000
    O82     O    0.95236   0.49311   0.54886   1.000
    O83     O    0.03205   0.48627   0.56328   1.000
    C84     C    0.24352   0.50031   0.46610   1.000
    O85     O    0.27730   0.49070   0.50032   1.000
    O86     O    0.20238   0.50687   0.44945   1.000
    O87     O    0.28208   0.51375   0.43605   1.000
    C88     C    0.16016   0.46590   0.96617   1.000
    O89     O    0.11903   0.44914   0.94292   1.000
    O90     O    0.19394   0.50026   0.00983   1.000
    O91     O    0.19868   0.43584   0.92263   1.000
    C92     C    0.66016   0.46593   0.96612   1.000
    O93     O    0.69869   0.43585   0.92259   1.000
    O94     O    0.69395   0.50026   0.00963   1.000
    O95     O    0.61903   0.44922   0.94287   1.000
    C96     C    0.91018   0.53395   0.03391   1.000
    O97     O    0.94868   0.56399   0.07742   1.000
    O98     O    0.86904   0.55066   0.05698   1.000
    O99     O    0.94396   0.49960   0.99022   1.000
    C100    C    0.41015   0.53405   0.03382   1.000
    O101    O    0.44394   0.49970   0.99015   1.000
    O102    O    0.44867   0.56412   0.07736   1.000
    O103    O    0.36901   0.55077   0.05707   1.000
    C104    C    0.57685   0.96607   0.50010   1.000
    O105    O    0.61063   0.00972   0.50936   1.000
    O106    O    0.53571   0.94286   0.49365   1.000
    O107    O    0.61539   0.92258   0.48671   1.000
    C108    C    0.32682   0.03382   0.49978   1.000
    O109    O    0.36061   0.99017   0.49050   1.000
    O110    O    0.28568   0.05703   0.50626   1.000
    O111    O    0.36534   0.07733   0.51315   1.000
    C112    C    0.07682   0.96615   0.50027   1.000
    O113    O    0.11061   0.00979   0.50952   1.000
    O114    O    0.03569   0.94293   0.49381   1.000
    O115    O    0.11534   0.92262   0.48687   1.000
    C116    C    0.82683   0.03377   0.49971   1.000
    O117    O    0.86061   0.99013   0.49048   1.000
    O118    O    0.78570   0.05699   0.50614   1.000
    O119    O    0.86536   0.07728   0.51313   1.000
loop_
    _geom_bond_atom_site_label_1
    _geom_bond_atom_site_label_2
    _geom_bond_distance
    _geom_bond_site_symmetry_2
    _ccdc_geom_bond_type
    Zr1    O24       1.19806      .   S
    Zr13   O24       1.19806      .   S
    Zr0    O25       1.19305      .   S
    Zr12   O25       1.19305      .   S
    Zr16   O26       1.19335      .   S
    Zr4    O26       1.19335      .   S
    Zr17   O27       1.19333      .   S
    Zr5    O27       1.19333      .   S
    Zr3    O28       1.19319      .   S
    Zr15   O28       1.19319      .   S
    Zr2    O29       1.19315      .   S
    Zr14   O29       1.19315      .   S
    Zr21   O30       1.19316      .   S
    Zr9    O30       1.19316      .   S
    Zr20   O31       1.19318      .   S
    Zr8    O31       1.19318      .   S
    Zr11   O32       1.19336      .   S
    Zr23   O32       1.19336      .   S
    Zr10   O33       1.19327      .   S
    Zr22   O33       1.19327      .   S
    Zr19   O34       1.19313      .   S
    Zr7    O34       1.19313      .   S
    Zr18   O35       1.19322      .   S
    Zr6    O35       1.19322      .   S
    N36    O37       0.63737      .   S
    Zr3    O37       1.66454      .   S
    N36    O38       4.46964      .   S
    Zr11   O38       2.61981      .   S
    N39    O40       0.63728      .   S
    Zr10   O40       1.66424  1_545   S
    N39    O41       4.47355      .   S
    Zr0    O41       2.62015      .   S
    N42    O43       0.63732      .   S
    Zr7    O43       1.66440  1_556   S
    N42    O44       4.47080      .   S
    Zr3    O44       2.62017      .   S
    N45    O46       0.63729      .   S
    Zr4    O46       1.66427  1_565   S
    N45    O47       4.47407      .   S
    Zr7    O47       2.62022      .   S
    N48    O49       0.63732      .   S
    Zr0    O49       1.66431  1_554   S
    N48    O50       4.47069      .   S
    Zr8    O50       2.62027      .   S
    N51    O52       0.63485      .   S
    Zr1    O52       1.65584  1_554   S
    N51    O53       4.47161      .   S
    Zr9    O53       2.62048      .   S
    N54    O55       0.63737      .   S
    Zr8    O55       1.66458      .   S
    N54    O56       4.46988      .   S
    Zr4    O56       2.61985      .   S
    N57    O58       0.63722      .   S
    Zr6    O58       1.66399  1_556   S
    N57    O59       4.47031      .   S
    Zr2    O59       2.62034      .   S
    N60    O61       0.63724      .   S
    Zr5    O61       1.66409  1_565   S
    N60    O62       4.47309  1_655   S
    Zr6    O62       2.62001      .   S
    N63    O64       0.63739      .   S
    Zr2    O64       1.66462      .   S
    N63    O65       4.47032      .   S
    Zr10   O65       2.62020      .   S
    N66    O67       0.63743      .   S
    Zr9    O67       1.66475      .   S
    N66    O68       4.47000      .   S
    Zr5    O68       2.61939      .   S
    N69    O70       0.63718      .   S
    Zr11   O70       1.66395  1_545   S
    N69    O71       4.47479      .   S
    Zr1    O71       2.62195      .   S
    C72    O73       1.07078      .   S
    N66    O73       2.47106      .   S
    C72    O74       1.01373      .   S
    Zr9    O74       2.07027      .   S
    C72    O75       0.94329      .   S
    Zr3    O75       1.94624      .   S
    C76    O77       1.01380      .   S
    Zr3    O77       2.07040      .   S
    C76    O78       0.94332      .   S
    Zr8    O78       1.94620      .   S
    C76    O79       1.07067      .   S
    N36    O79       2.47113      .   S
    C80    O81       1.00535  1_655   S
    Zr2    O81       2.06413      .   S
    C80    O82       0.94104      .   S
    Zr9    O82       1.94895      .   S
    C80    O83       1.07828  1_655   S
    N63    O83       2.46792      .   S
    C84    O85       1.01377      .   S
    Zr8    O85       2.07033      .   S
    C84    O86       0.94329      .   S
    Zr2    O86       1.94610      .   S
    C84    O87       1.07084      .   S
    N54    O87       2.47115      .   S
    C88    O89       0.94353      .   S
    Zr6    O89       1.94684      .   S
    C88    O90       1.01363  1_556   S
    Zr0    O90       2.07010      .   S
    C88    O91       1.07100      .   S
    N48    O91       2.47067      .   S
    C92    O93       1.07103      .   S
    N51    O93       2.47077      .   S
    C92    O94       1.01215  1_556   S
    Zr1    O94       2.06675      .   S
    C92    O95       0.94358      .   S
    Zr7    O95       1.94697      .   S
    C96    O97       1.07043      .   S
    N57    O97       2.47122  1_455   S
    C96    O98       0.94258      .   S
    Zr1    O98       1.94521      .   S
    C96    O99       1.01368  1_554   S
    Zr6    O99       2.07002  1_455   S
    C100   O101      1.01366  1_554   S
    Zr7    O101      2.07007      .   S
    C100   O102      1.07109      .   S
    N42    O102      2.47061      .   S
    C100   O103      0.94351      .   S
    Zr0    O103      1.94685      .   S
    C104   O105      1.01342  1_565   S
    Zr11   O105      2.06949      .   S
    C104   O106      0.94347      .   S
    Zr4    O106      1.94676      .   S
    C104   O107      1.07088      .   S
    N69    O107      2.47081      .   S
    C108   O109      1.01335  1_545   S
    Zr4    O109      2.06955      .   S
    C108   O110      0.94340      .   S
    Zr10   O110      1.94663      .   S
    C108   O111      1.07088      .   S
    N45    O111      2.47089      .   S
    C112   O113      1.01337  1_565   S
    Zr10   O113      2.06942      .   S
    C112   O114      0.94352      .   S
    Zr5    O114      1.94678  1_655   S
    C112   O115      1.07096      .   S
    N39    O115      2.47067      .   S
    C116   O117      1.01336  1_545   S
    Zr5    O117      2.06946      .   S
    C116   O118      0.94338      .   S
    Zr11   O118      1.94663      .   S
    C116   O119      1.07087      .   S
    N60    O119      2.47063      .   S
