# CIF file generated by openbabel 2.4.90, see http://openbabel.sf.net
data_I
_chemical_name_common ''
_cell_length_a 17.293
_cell_length_b 13.056
_cell_length_c 15.041
_cell_angle_alpha 64.208
_cell_angle_beta 83.189
_cell_angle_gamma 75.681
_space_group_name_H-M_alt 'P 1'
_space_group_name_Hall 'P 1'
loop_
    _symmetry_equiv_pos_as_xyz
    x,y,z
loop_
    _atom_site_label
    _atom_site_type_symbol
    _atom_site_fract_x
    _atom_site_fract_y
    _atom_site_fract_z
    _atom_site_occupancy
    Zr0     Zr   0.39703   0.09772   0.81991   1.000
    Zr1     Zr   0.89704   0.09772   0.81991   1.000
    Zr2     Zr   0.15319   0.91080   0.18159   1.000
    Zr3     Zr   0.65320   0.91080   0.18159   1.000
    N4      N    0.02256   0.45853   0.54136   1.000
    O5      O    0.86357   0.65991   0.37697   1.000
    O6      O    0.18275   0.29927   0.66369   1.000
    N7      N    0.27903   0.52330   0.01690   1.000
    O8      O    0.22210   0.75577   0.07351   1.000
    O9      O    0.33131   0.76950   0.93802   1.000
    N10     N    0.77904   0.52330   0.01689   1.000
    O11     O    0.83132   0.76950   0.93802   1.000
    O12     O    0.72211   0.75577   0.07351   1.000
    N13     N    0.52257   0.45853   0.54114   1.000
    O14     O    0.68276   0.29927   0.66357   1.000
    O15     O    0.36357   0.65991   0.37684   1.000
    N16     N    0.02880   0.54059   0.98340   1.000
    O17     O    0.96952   0.33166   0.92668   1.000
    O18     O    0.08398   0.70488   0.06264   1.000
    N19     N    0.52880   0.54059   0.98347   1.000
    O20     O    0.58399   0.70488   0.06267   1.000
    O21     O    0.46952   0.33166   0.92721   1.000
    N22     N    0.27277   0.99840   0.45902   1.000
    O23     O    0.43559   0.95901   0.33737   1.000
    O24     O    0.11065   0.03917   0.62324   1.000
    N25     N    0.77277   0.99840   0.45905   1.000
    O26     O    0.93558   0.95902   0.33739   1.000
    O27     O    0.61065   0.03917   0.62325   1.000
loop_
    _geom_bond_atom_site_label_1
    _geom_bond_atom_site_label_2
    _geom_bond_distance
    _geom_bond_site_symmetry_2
    _ccdc_geom_bond_type
    N4     O5        3.60077  1_455   S
    Zr3    O5        4.56788      .   S
    N4     O6        3.22692      .   S
    Zr0    O6        4.24708      .   S
    N7     O8        3.38809      .   S
    Zr2    O8        3.06110      .   S
    N7     O9        3.22830  1_554   S
    Zr0    O9        4.25631  1_545   S
    N10    O11       3.22830  1_554   S
    Zr1    O11       4.25633  1_545   S
    N10    O12       3.38808      .   S
    Zr3    O12       3.06115      .   S
    N13    O14       3.22765      .   S
    Zr1    O14       4.24782      .   S
    N13    O15       3.60021      .   S
    Zr2    O15       4.56713      .   S
    N16    O17       3.58259  1_455   S
    Zr1    O17       4.48527      .   S
    N16    O18       3.23093  1_556   S
    Zr2    O18       4.25996      .   S
    N19    O20       3.23057  1_556   S
    Zr3    O20       4.25962      .   S
    N19    O21       3.57850      .   S
    Zr0    O21       4.49088      .   S
    N22    O23       3.22811      .   S
    Zr3    O23       4.25066      .   S
    N22    O24       3.60662  1_565   S
    Zr1    O24       4.57806  1_655   S
    N25    O26       3.22810      .   S
    Zr2    O26       4.25066  1_455   S
    N25    O27       3.60652  1_565   S
    Zr0    O27       4.57811      .   S
