# CIF file generated by openbabel 2.4.90, see http://openbabel.sf.net
data_I
_chemical_name_common ''
_cell_length_a 17.293
_cell_length_b 13.056
_cell_length_c 15.041
_cell_angle_alpha 64.208
_cell_angle_beta 83.189
_cell_angle_gamma 75.681
_space_group_name_H-M_alt 'P 1'
_space_group_name_Hall 'P 1'
loop_
    _symmetry_equiv_pos_as_xyz
    x,y,z
loop_
    _atom_site_label
    _atom_site_type_symbol
    _atom_site_fract_x
    _atom_site_fract_y
    _atom_site_fract_z
    _atom_site_occupancy
    C0      C    0.39703   0.09772   0.81991   1.000
    C1      C    0.89704   0.09772   0.81991   1.000
    C2      C    0.15319   0.91080   0.18159   1.000
    C3      C    0.65320   0.91080   0.18159   1.000
    C4      C    0.02280   0.06282   0.48883   1.000
    C5      C    0.52280   0.06283   0.48882   1.000
    C6      C    0.15130   0.04297   0.39855   1.000
    C7      C    0.65130   0.04298   0.39850   1.000
    C8      C    0.27529   0.00000   0.64659   1.000
    C9      C    0.77530   0.00000   0.64659   1.000
    C10     C    0.14537   0.02676   0.73588   1.000
    C11     C    0.64537   0.02675   0.73588   1.000
    C12     C    0.35154   0.99657   0.51270   1.000
    C13     C    0.85154   0.99657   0.51270   1.000
    C14     C    0.26581   0.00000   0.34078   1.000
    C15     C    0.76582   0.00000   0.34078   1.000
    C16     C    0.34726   0.00000   0.19730   1.000
    C17     C    0.84727   0.00000   0.19730   1.000
    C18     C    0.48086   0.98093   0.12175   1.000
    C19     C    0.98088   0.98094   0.12175   1.000
    C20     C    0.09449   0.87767   0.38494   1.000
    C21     C    0.59451   0.87767   0.38494   1.000
    C22     C    0.46614   0.91214   0.47080   1.000
    C23     C    0.96615   0.91214   0.47080   1.000
    C24     C    0.21025   0.25142   0.94451   1.000
    C25     C    0.71026   0.25142   0.94451   1.000
    C26     C    0.25639   0.43685   0.87917   1.000
    C27     C    0.75640   0.43685   0.87917   1.000
    C28     C    0.25885   0.40747   0.17628   1.000
    C29     C    0.75886   0.40747   0.17628   1.000
    C30     C    0.21242   0.22306   0.23945   1.000
    C31     C    0.71243   0.22306   0.23945   1.000
    C32     C    0.29592   0.58161   0.90010   1.000
    C33     C    0.79593   0.58161   0.90010   1.000
    C34     C    0.29116   0.57255   0.10880   1.000
    C35     C    0.79117   0.57255   0.10884   1.000
    C36     C    0.34432   0.72827   0.83299   1.000
    C37     C    0.84434   0.72827   0.83299   1.000
    C38     C    0.38318   0.91929   0.76518   1.000
    C39     C    0.88320   0.91929   0.76518   1.000
    C40     C    0.35341   0.93286   0.03785   1.000
    C41     C    0.85343   0.93286   0.03780   1.000
    C42     C    0.31455   0.74276   0.11828   1.000
    C43     C    0.81457   0.74275   0.11828   1.000
    C44     C    0.27326   0.55170   0.51173   1.000
    C45     C    0.77327   0.55169   0.51170   1.000
    C46     C    0.39978   0.44378   0.60275   1.000
    C47     C    0.89979   0.44378   0.60275   1.000
    C48     C    0.02927   0.65041   0.35184   1.000
    C49     C    0.52928   0.65041   0.35180   1.000
    C50     C    0.40129   0.75648   0.26190   1.000
    C51     C    0.90130   0.75648   0.26190   1.000
    C52     C    0.10247   0.50848   0.48717   1.000
    C53     C    0.60248   0.50848   0.48717   1.000
    C54     C    0.01292   0.34537   0.66048   1.000
    C55     C    0.51293   0.34535   0.66047   1.000
    C56     C    0.09137   0.21785   0.80396   1.000
    C57     C    0.59138   0.21785   0.80396   1.000
    C58     C    0.22348   0.10694   0.88015   1.000
    C59     C    0.72349   0.10695   0.88015   1.000
    C60     C    0.34261   0.26614   0.61711   1.000
    C61     C    0.84262   0.26615   0.61711   1.000
    C62     C    0.21604   0.38486   0.53075   1.000
    C63     C    0.71606   0.38485   0.53070   1.000
    C64     C    0.46064   0.19545   0.05561   1.000
    C65     C    0.96065   0.19545   0.05561   1.000
    C66     C    0.00943   0.31361   0.12005   1.000
    C67     C    0.50944   0.31361   0.12005   1.000
    C68     C    0.00607   0.58735   0.82460   1.000
    C69     C    0.50608   0.58735   0.82464   1.000
    C70     C    0.45725   0.46787   0.76233   1.000
    C71     C    0.95726   0.46787   0.76233   1.000
    C72     C    0.05133   0.47815   0.09823   1.000
    C73     C    0.55134   0.47814   0.09823   1.000
    C74     C    0.03459   0.68645   0.89343   1.000
    C75     C    0.53459   0.68645   0.89343   1.000
    C76     C    0.09815   0.55758   0.16470   1.000
    C77     C    0.59815   0.55758   0.16476   1.000
    C78     C    0.14089   0.67694   0.23277   1.000
    C79     C    0.64091   0.67694   0.23277   1.000
    C80     C    0.10476   0.96959   0.96552   1.000
    C81     C    0.60478   0.96959   0.96551   1.000
    C82     C    0.06064   0.86440   0.88525   1.000
    C83     C    0.56065   0.86440   0.88525   1.000
    C84     C    0.99715   0.05455   0.67100   1.000
    C85     C    0.49716   0.05452   0.67180   1.000
    C86     C    0.07598   0.04371   0.61874   1.000
    C87     C    0.57598   0.04376   0.61872   1.000
    C88     C    0.07881   0.04902   0.52300   1.000
    C89     C    0.57882   0.04900   0.52305   1.000
    C90     C    0.15095   0.03763   0.47300   1.000
    C91     C    0.65095   0.03765   0.47299   1.000
    C92     C    0.22345   0.02032   0.51760   1.000
    C93     C    0.72346   0.02029   0.51761   1.000
    C94     C    0.21996   0.01799   0.61265   1.000
    C95     C    0.71997   0.01801   0.61264   1.000
    C96     C    0.14754   0.02887   0.66250   1.000
    C97     C    0.64755   0.02884   0.66255   1.000
    C98     C    0.30142   0.00000   0.47126   1.000
    C99     C    0.80143   0.00000   0.47125   1.000
    C100    C    0.31563   0.99256   0.38440   1.000
    C101    C    0.81564   0.99255   0.38441   1.000
    C102    C    0.39410   0.97092   0.34091   1.000
    C103    C    0.89410   0.97091   0.34091   1.000
    C104    C    0.40068   0.98807   0.24126   1.000
    C105    C    0.90069   0.98808   0.24120   1.000
    C106    C    0.47506   0.96686   0.19900   1.000
    C107    C    0.97507   0.96685   0.19903   1.000
    C108    C    0.03825   0.91043   0.34590   1.000
    C109    C    0.53827   0.91043   0.34589   1.000
    C110    C    0.46618   0.93032   0.39293   1.000
    C111    C    0.96619   0.93033   0.39293   1.000
    C112    C    0.18318   0.11158   0.13800   1.000
    C113    C    0.68320   0.11158   0.13803   1.000
    C114    C    0.20835   0.22555   0.09608   1.000
    C115    C    0.70836   0.22555   0.09608   1.000
    C116    C    0.22086   0.28645   0.99452   1.000
    C117    C    0.72087   0.28645   0.99452   1.000
    C118    C    0.24635   0.39050   0.95836   1.000
    C119    C    0.74636   0.39050   0.95836   1.000
    C120    C    0.26047   0.43692   0.02237   1.000
    C121    C    0.76049   0.43692   0.02237   1.000
    C122    C    0.24772   0.37482   0.12457   1.000
    C123    C    0.74773   0.37482   0.12457   1.000
    C124    C    0.22196   0.27126   0.16056   1.000
    C125    C    0.72198   0.27126   0.16056   1.000
    C126    C    0.28709   0.54600   0.98019   1.000
    C127    C    0.78710   0.54600   0.98019   1.000
    C128    C    0.30058   0.60594   0.02898   1.000
    C129    C    0.80059   0.60594   0.02898   1.000
    C130    C    0.32543   0.71639   0.98305   1.000
    C131    C    0.82544   0.71639   0.98305   1.000
    C132    C    0.34536   0.76962   0.88186   1.000
    C133    C    0.84537   0.76962   0.88186   1.000
    C134    C    0.36716   0.87585   0.84310   1.000
    C135    C    0.86717   0.87586   0.84310   1.000
    C136    C    0.35154   0.88380   0.99546   1.000
    C137    C    0.85155   0.88380   0.99540   1.000
    C138    C    0.32980   0.77688   0.03979   1.000
    C139    C    0.82981   0.77688   0.03979   1.000
    C140    C    0.25165   0.72166   0.32720   1.000
    C141    C    0.75166   0.72167   0.32721   1.000
    C142    C    0.32932   0.65917   0.38046   1.000
    C143    C    0.82934   0.65913   0.38044   1.000
    C144    C    0.33004   0.57112   0.47707   1.000
    C145    C    0.83005   0.57114   0.47708   1.000
    C146    C    0.40105   0.51094   0.52754   1.000
    C147    C    0.90107   0.51092   0.52750   1.000
    C148    C    0.47453   0.53694   0.48229   1.000
    C149    C    0.97454   0.53697   0.48230   1.000
    C150    C    0.47316   0.62738   0.38629   1.000
    C151    C    0.97318   0.62736   0.38628   1.000
    C152    C    0.40184   0.68700   0.33000   1.000
    C153    C    0.90185   0.68703   0.33601   1.000
    C154    C    0.05145   0.47367   0.52900   1.000
    C155    C    0.55146   0.47368   0.52904   1.000
    C156    C    0.06370   0.37841   0.61664   1.000
    C157    C    0.56372   0.37840   0.61664   1.000
    C158    C    0.14123   0.31407   0.66048   1.000
    C159    C    0.64124   0.31405   0.66047   1.000
    C160    C    0.14573   0.23225   0.76021   1.000
    C161    C    0.64575   0.23226   0.76021   1.000
    C162    C    0.21924   0.16957   0.80277   1.000
    C163    C    0.71925   0.16956   0.80277   1.000
    C164    C    0.28554   0.25968   0.65599   1.000
    C165    C    0.78555   0.25968   0.65599   1.000
    C166    C    0.21442   0.32568   0.60866   1.000
    C167    C    0.71443   0.32569   0.60866   1.000
    C168    C    0.42867   0.25385   0.86332   1.000
    C169    C    0.92869   0.25385   0.86332   1.000
    C170    C    0.45563   0.32436   0.90498   1.000
    C171    C    0.95564   0.32436   0.90498   1.000
    C172    C    0.47053   0.28140   0.00582   1.000
    C173    C    0.97055   0.28140   0.00582   1.000
    C174    C    0.99750   0.34818   0.04147   1.000
    C175    C    0.49751   0.34818   0.04147   1.000
    C176    C    0.01045   0.45990   0.97771   1.000
    C177    C    0.51046   0.45991   0.97771   1.000
    C178    C    0.49549   0.50218   0.87621   1.000
    C179    C    0.99550   0.50218   0.87621   1.000
    C180    C    0.46841   0.43563   0.84072   1.000
    C181    C    0.96843   0.43563   0.84072   1.000
    C182    C    0.03828   0.52577   0.01945   1.000
    C183    C    0.53829   0.52577   0.01944   1.000
    C184    C    0.04834   0.63683   0.97184   1.000
    C185    C    0.54835   0.63683   0.97184   1.000
    C186    C    0.07524   0.69950   0.01754   1.000
    C187    C    0.57524   0.69951   0.01754   1.000
    C188    C    0.09847   0.64852   0.11715   1.000
    C189    C    0.59849   0.64852   0.11714   1.000
    C190    C    0.12270   0.71376   0.15592   1.000
    C191    C    0.62271   0.71376   0.15592   1.000
    C192    C    0.10318   0.87772   0.00000   1.000
    C193    C    0.60319   0.87772   0.00000   1.000
    C194    C    0.07852   0.81769   0.96237   1.000
    C195    C    0.57854   0.81769   0.96237   1.000
    C196    C    0.04360   0.92848   0.24986   1.000
    C197    C    0.54362   0.92846   0.24986   1.000
    C198    C    0.37014   0.93369   0.89839   1.000
    C199    C    0.87016   0.93369   0.89839   1.000
    C200    C    0.28886   0.18232   0.75211   1.000
    C201    C    0.78887   0.18232   0.75211   1.000
    C202    C    0.12515   0.82752   0.10216   1.000
    C203    C    0.62517   0.82752   0.10215   1.000
    C204    C    0.00000   0.06216   0.75500   1.000
    C205    C    0.50001   0.06216   0.75500   1.000
    C206    C    0.43503   0.05496   0.63644   1.000
    C207    C    0.93505   0.05495   0.63644   1.000
    C208    C    0.17715   0.06570   0.07866   1.000
    C209    C    0.67717   0.06570   0.07865   1.000
    C210    C    0.17026   0.06192   0.22966   1.000
    C211    C    0.67027   0.06192   0.22966   1.000
    C212    C    0.25595   0.81178   0.24350   1.000
    C213    C    0.75596   0.81178   0.24358   1.000
    C214    C    0.18892   0.68658   0.36272   1.000
    C215    C    0.68893   0.68656   0.36272   1.000
    C216    C    0.42344   0.14773   0.92199   1.000
    C217    C    0.92346   0.14773   0.92000   1.000
    C218    C    0.41366   0.29792   0.77253   1.000
    C219    C    0.91367   0.29792   0.77253   1.000
    O220    O    0.61418   0.85262   0.05108   1.000
    O221    O    0.59087   0.84770   0.98118   1.000
    O222    O    0.60398   0.92366   0.98275   1.000
    O223    O    0.11417   0.85262   0.05108   1.000
    O224    O    0.09085   0.84771   0.98118   1.000
    O225    O    0.10397   0.92366   0.98276   1.000
    O226    O    0.98402   0.31479   0.02365   1.000
    O227    O    0.96560   0.23842   0.03071   1.000
    O228    O    0.96309   0.30288   0.95540   1.000
    O229    O    0.48402   0.31479   0.02365   1.000
    O230    O    0.46558   0.23843   0.03071   1.000
    O231    O    0.46308   0.30288   0.95540   1.000
    O232    O    0.58686   0.67401   0.06734   1.000
    O233    O    0.57689   0.75860   0.98995   1.000
    O234    O    0.56179   0.66817   0.99469   1.000
    O235    O    0.08685   0.67401   0.06735   1.000
    O236    O    0.07688   0.75859   0.98995   1.000
    O237    O    0.06179   0.66817   0.99469   1.000
    O238    O    0.54482   0.50196   0.05884   1.000
    O239    O    0.54332   0.58130   0.99564   1.000
    O240    O    0.52438   0.49284   0.99857   1.000
    O241    O    0.04480   0.50196   0.05884   1.000
    O242    O    0.04331   0.58130   0.99565   1.000
    O243    O    0.02437   0.49284   0.99858   1.000
    O244    O    0.75411   0.40587   0.07347   1.000
    O245    O    0.75343   0.41371   0.99036   1.000
    O246    O    0.77379   0.49146   0.00128   1.000
    O247    O    0.25410   0.40587   0.07347   1.000
    O248    O    0.25341   0.41371   0.99036   1.000
    O249    O    0.27378   0.49146   0.00128   1.000
    O250    O    0.79588   0.58924   0.06891   1.000
    O251    O    0.79385   0.57597   0.00458   1.000
    O252    O    0.81302   0.66116   0.00602   1.000
    O253    O    0.29587   0.58924   0.06889   1.000
    O254    O    0.29383   0.57597   0.00458   1.000
    O255    O    0.31301   0.66116   0.00602   1.000
    O256    O    0.85249   0.90833   0.01660   1.000
    O257    O    0.35247   0.90833   0.01666   1.000
    O258    O    0.32218   0.75982   0.07903   1.000
    O259    O    0.32761   0.74663   0.01142   1.000
    O260    O    0.34067   0.83034   0.01763   1.000
    O261    O    0.82219   0.75982   0.07903   1.000
    O262    O    0.82763   0.74663   0.01142   1.000
    O263    O    0.84068   0.83034   0.01759   1.000
    O264    O    0.00347   0.33089   0.08076   1.000
    O265    O    0.00398   0.40404   0.00959   1.000
    O266    O    0.50348   0.33089   0.08076   1.000
    O267    O    0.50399   0.40404   0.00959   1.000
    O268    O    0.68018   0.08864   0.10834   1.000
    O269    O    0.66518   0.98825   0.13012   1.000
    O270    O    0.18017   0.08864   0.10833   1.000
    O271    O    0.16517   0.98825   0.13012   1.000
    O272    O    0.69578   0.16857   0.11706   1.000
    O273    O    0.71517   0.24840   0.12832   1.000
    O274    O    0.71462   0.25600   0.04530   1.000
    O275    O    0.19577   0.16856   0.11704   1.000
    O276    O    0.21516   0.24840   0.12832   1.000
    O277    O    0.21460   0.25600   0.04530   1.000
    O278    O    0.62394   0.77064   0.12904   1.000
    O279    O    0.63918   0.86916   0.14187   1.000
    O280    O    0.12393   0.77064   0.12904   1.000
    O281    O    0.13917   0.86916   0.14188   1.000
    O282    O    0.61060   0.68114   0.13653   1.000
    O283    O    0.59832   0.60305   0.14095   1.000
    O284    O    0.11059   0.68114   0.13654   1.000
    O285    O    0.09831   0.60305   0.14092   1.000
    O286    O    0.97798   0.97389   0.16039   1.000
    O287    O    0.47796   0.97389   0.16038   1.000
    O288    O    0.73486   0.32304   0.14256   1.000
    O289    O    0.75330   0.39114   0.15043   1.000
    O290    O    0.23484   0.32304   0.14256   1.000
    O291    O    0.25328   0.39114   0.15043   1.000
    O292    O    0.17672   0.08675   0.18383   1.000
    O293    O    0.67673   0.08675   0.18385   1.000
    O294    O    0.63181   0.69535   0.19435   1.000
    O295    O    0.13180   0.69535   0.19435   1.000
    O296    O    0.71721   0.24716   0.20001   1.000
    O297    O    0.21719   0.24716   0.20001   1.000
    O298    O    0.70458   0.86129   0.21258   1.000
    O299    O    0.59841   0.91963   0.21573   1.000
    O300    O    0.20457   0.86129   0.21254   1.000
    O301    O    0.09840   0.91964   0.21573   1.000
    O302    O    0.87398   0.99404   0.21925   1.000
    O303    O    0.37397   0.99403   0.21928   1.000
    O304    O    0.43787   0.97746   0.22013   1.000
    O305    O    0.50934   0.94766   0.22443   1.000
    O306    O    0.93788   0.97747   0.22012   1.000
    O307    O    0.00934   0.94766   0.22444   1.000
    O308    O    0.89740   0.97949   0.29106   1.000
    O309    O    0.39739   0.97950   0.29108   1.000
    O310    O    0.25380   0.76672   0.28535   1.000
    O311    O    0.75381   0.76672   0.28539   1.000
    O312    O    0.04093   0.91945   0.29788   1.000
    O313    O    0.54094   0.91945   0.29787   1.000
    O314    O    0.90158   0.72175   0.29895   1.000
    O315    O    0.40157   0.72174   0.29595   1.000
    O316    O    0.22028   0.70412   0.34496   1.000
    O317    O    0.29049   0.69042   0.35383   1.000
    O318    O    0.72030   0.70412   0.34496   1.000
    O319    O    0.79050   0.69040   0.35383   1.000
    O320    O    0.36558   0.67309   0.35523   1.000
    O321    O    0.43750   0.65719   0.35815   1.000
    O322    O    0.86559   0.67308   0.35822   1.000
    O323    O    0.93751   0.65719   0.36114   1.000
    O324    O    0.29072   0.99628   0.36259   1.000
    O325    O    0.79073   0.99627   0.36260   1.000
    O326    O    0.85487   0.98173   0.36266   1.000
    O327    O    0.93015   0.95062   0.36692   1.000
    O328    O    0.35486   0.98174   0.36266   1.000
    O329    O    0.43014   0.95062   0.36692   1.000
    O330    O    0.56639   0.89405   0.36542   1.000
    O331    O    0.50223   0.92038   0.36941   1.000
    O332    O    0.06637   0.89405   0.36542   1.000
    O333    O    0.00222   0.92038   0.36942   1.000
    O334    O    0.50122   0.63889   0.36905   1.000
    O335    O    0.00122   0.63889   0.36906   1.000
    O336    O    0.82969   0.61514   0.42876   1.000
    O337    O    0.32968   0.61515   0.42877   1.000
    O338    O    0.30853   0.99628   0.42783   1.000
    O339    O    0.80854   0.99627   0.42783   1.000
    O340    O    0.97386   0.58217   0.43429   1.000
    O341    O    0.47385   0.58216   0.43429   1.000
    O342    O    0.46616   0.92123   0.43187   1.000
    O343    O    0.96617   0.92123   0.43187   1.000
    O344    O    0.65113   0.04031   0.43574   1.000
    O345    O    0.15112   0.04030   0.43577   1.000
    O346    O    0.82649   0.99829   0.49197   1.000
    O347    O    0.76245   0.01014   0.49443   1.000
    O348    O    0.32648   0.99829   0.49198   1.000
    O349    O    0.26244   0.01016   0.49443   1.000
    O350    O    0.68721   0.02897   0.49530   1.000
    O351    O    0.61489   0.04332   0.49802   1.000
    O352    O    0.18720   0.02897   0.49530   1.000
    O353    O    0.11488   0.04333   0.49800   1.000
    O354    O    0.30165   0.56141   0.49440   1.000
    O355    O    0.36554   0.54103   0.50231   1.000
    O356    O    0.80166   0.56142   0.49439   1.000
    O357    O    0.86556   0.54103   0.50229   1.000
    O358    O    0.43779   0.52394   0.50492   1.000
    O359    O    0.51300   0.50531   0.50566   1.000
    O360    O    0.93780   0.52395   0.50490   1.000
    O361    O    0.01300   0.50532   0.50565   1.000
    O362    O    0.07696   0.49107   0.50809   1.000
    O363    O    0.57697   0.49108   0.50810   1.000
    O364    O    0.55081   0.05591   0.50594   1.000
    O365    O    0.05080   0.05592   0.50592   1.000
    O366    O    0.22171   0.01916   0.56512   1.000
    O367    O    0.72172   0.01915   0.56512   1.000
    O368    O    0.07740   0.04637   0.57087   1.000
    O369    O    0.57740   0.04638   0.57089   1.000
    O370    O    0.90043   0.47735   0.56512   1.000
    O371    O    0.40042   0.47736   0.56514   1.000
    O372    O    0.05758   0.42604   0.57282   1.000
    O373    O    0.55759   0.42604   0.57284   1.000
    O374    O    0.71524   0.35527   0.56968   1.000
    O375    O    0.21523   0.35527   0.56971   1.000
    O376    O    0.74999   0.29268   0.63233   1.000
    O377    O    0.67783   0.31987   0.63457   1.000
    O378    O    0.24998   0.29268   0.63233   1.000
    O379    O    0.17782   0.31988   0.63457   1.000
    O380    O    0.74764   0.00900   0.62962   1.000
    O381    O    0.68376   0.02342   0.63760   1.000
    O382    O    0.24763   0.00900   0.62962   1.000
    O383    O    0.18375   0.02343   0.63758   1.000
    O384    O    0.10247   0.34624   0.63856   1.000
    O385    O    0.03831   0.36189   0.63856   1.000
    O386    O    0.60248   0.34623   0.63855   1.000
    O387    O    0.53832   0.36188   0.63855   1.000
    O388    O    0.31407   0.26291   0.63655   1.000
    O389    O    0.81409   0.26291   0.63655   1.000
    O390    O    0.61177   0.03630   0.64063   1.000
    O391    O    0.53657   0.04914   0.64526   1.000
    O392    O    0.11176   0.03629   0.64062   1.000
    O393    O    0.03656   0.04913   0.64487   1.000
    O394    O    0.96610   0.05475   0.65372   1.000
    O395    O    0.46610   0.05474   0.65412   1.000
    O396    O    0.28720   0.22100   0.70405   1.000
    O397    O    0.78721   0.22100   0.70405   1.000
    O398    O    0.64349   0.27315   0.71034   1.000
    O399    O    0.14348   0.27316   0.71035   1.000
    O400    O    0.14645   0.02781   0.69919   1.000
    O401    O    0.64646   0.02780   0.69922   1.000
    O402    O    0.99858   0.05835   0.71300   1.000
    O403    O    0.49859   0.05834   0.71340   1.000
    O404    O    0.25405   0.17594   0.77744   1.000
    O405    O    0.34294   0.14002   0.78601   1.000
    O406    O    0.75406   0.17594   0.77744   1.000
    O407    O    0.84296   0.14002   0.78601   1.000
    O408    O    0.94852   0.07994   0.78745   1.000
    O409    O    0.44852   0.07994   0.78745   1.000
    O410    O    0.68250   0.20091   0.78149   1.000
    O411    O    0.61856   0.22505   0.78209   1.000
    O412    O    0.18248   0.20091   0.78149   1.000
    O413    O    0.11855   0.22505   0.78209   1.000
    O414    O    0.96285   0.45175   0.80153   1.000
    O415    O    0.46283   0.45175   0.80153   1.000
    O416    O    0.37517   0.89757   0.80414   1.000
    O417    O    0.87518   0.89757   0.80414   1.000
    O418    O    0.42117   0.27589   0.81793   1.000
    O419    O    0.92118   0.27589   0.81793   1.000
    O420    O    0.22136   0.13826   0.84146   1.000
    O421    O    0.72137   0.13825   0.84146   1.000
    O422    O    0.38359   0.01570   0.85915   1.000
    O423    O    0.41024   0.12273   0.87095   1.000
    O424    O    0.88360   0.01571   0.85915   1.000
    O425    O    0.91025   0.12273   0.86996   1.000
    O426    O    0.00079   0.54476   0.85040   1.000
    O427    O    0.50078   0.54476   0.85043   1.000
    O428    O    0.84485   0.74895   0.85742   1.000
    O429    O    0.34484   0.74895   0.85742   1.000
    O430    O    0.48195   0.46890   0.85847   1.000
    O431    O    0.46202   0.37999   0.87285   1.000
    O432    O    0.98197   0.46890   0.85847   1.000
    O433    O    0.96203   0.37999   0.87285   1.000
    O434    O    0.85627   0.82274   0.86248   1.000
    O435    O    0.86866   0.90477   0.87074   1.000
    O436    O    0.35626   0.82274   0.86248   1.000
    O437    O    0.36865   0.90477   0.87074   1.000
    O438    O    0.44215   0.28910   0.88415   1.000
    O439    O    0.42606   0.20079   0.89266   1.000
    O440    O    0.94216   0.28911   0.88415   1.000
    O441    O    0.92607   0.20079   0.89166   1.000
    O442    O    0.50297   0.48104   0.92696   1.000
    O443    O    0.00298   0.48104   0.92696   1.000
    O444    O    0.25137   0.41367   0.91876   1.000
    O445    O    0.75138   0.41367   0.91876   1.000
    O446    O    0.33539   0.74300   0.93246   1.000
    O447    O    0.83540   0.74300   0.93246   1.000
    O448    O    0.56959   0.84104   0.92381   1.000
    O449    O    0.06958   0.84105   0.92381   1.000
    O450    O    0.54147   0.66164   0.93263   1.000
    O451    O    0.04146   0.66164   0.93263   1.000
    O452    O    0.86085   0.90875   0.94689   1.000
    O453    O    0.36084   0.90875   0.94693   1.000
    O454    O    0.79151   0.56380   0.94015   1.000
    O455    O    0.29150   0.56380   0.94015   1.000
    O456    O    0.71557   0.26893   0.96951   1.000
    O457    O    0.21555   0.26893   0.96951   1.000
    O458    O    0.23360   0.33847   0.97644   1.000
    O459    O    0.73362   0.33847   0.97644   1.000
loop_
    _geom_bond_atom_site_label_1
    _geom_bond_atom_site_label_2
    _geom_bond_distance
    _geom_bond_site_symmetry_2
    _ccdc_geom_bond_type
    C193   O220      0.72002      .   S
    C203   O220      0.72002      .   S
    C193   O221      0.65670  1_554   S
    C195   O221      0.65670      .   S
    C193   O222      0.54314  1_554   S
    C81    O222      0.54314      .   S
    C192   O223      0.72006      .   S
    C202   O223      0.72006      .   S
    C192   O224      0.65672  1_554   S
    C194   O224      0.65672      .   S
    C192   O225      0.54314  1_554   S
    C80    O225      0.54314      .   S
    C173   O226      0.69495      .   S
    C174   O226      0.69495      .   S
    C173   O227      0.54379      .   S
    C65    O227      0.54379      .   S
    C173   O228      0.70045  1_554   S
    C171   O228      0.70045      .   S
    C172   O229      0.69508      .   S
    C175   O229      0.69508      .   S
    C172   O230      0.54379      .   S
    C64    O230      0.54379      .   S
    C172   O231      0.70043  1_554   S
    C170   O231      0.70043      .   S
    C187   O232      0.70563      .   S
    C189   O232      0.70563      .   S
    C187   O233      0.70546  1_554   S
    C195   O233      0.70546      .   S
    C187   O234      0.72662  1_554   S
    C185   O234      0.72662      .   S
    C186   O235      0.70565      .   S
    C188   O235      0.70565      .   S
    C186   O236      0.70546  1_554   S
    C194   O236      0.70546      .   S
    C186   O237      0.72663  1_554   S
    C184   O237      0.72663      .   S
    C183   O238      0.54653      .   S
    C73    O238      0.54653      .   S
    C183   O239      0.67769  1_554   S
    C185   O239      0.67769      .   S
    C183   O240      0.72650  1_554   S
    C177   O240      0.72650      .   S
    C182   O241      0.54645      .   S
    C72    O241      0.54645      .   S
    C182   O242      0.67770  1_554   S
    C184   O242      0.67770      .   S
    C182   O243      0.72655  1_554   S
    C176   O243      0.72655      .   S
    C121   O244      0.70577      .   S
    C123   O244      0.70577      .   S
    C121   O245      0.70547  1_554   S
    C119   O245      0.70547      .   S
    C121   O246      0.72648      .   S
    C127   O246      0.72648  1_556   S
    C120   O247      0.70576      .   S
    C122   O247      0.70576      .   S
    C120   O248      0.70546  1_554   S
    C118   O248      0.70546      .   S
    C120   O249      0.72649      .   S
    C126   O249      0.72649  1_556   S
    C129   O250      0.54600      .   S
    C35    O250      0.54600      .   S
    C129   O251      0.67753      .   S
    C127   O251      0.67753  1_556   S
    C129   O252      0.72637      .   S
    C131   O252      0.72637  1_556   S
    C128   O253      0.54573      .   S
    C34    O253      0.54573      .   S
    C128   O254      0.67753      .   S
    C126   O254      0.67753  1_556   S
    C128   O255      0.72638      .   S
    C130   O255      0.72638  1_556   S
    C41    O256      0.54514      .   S
    C137   O256      0.54514  1_556   S
    C40    O257      0.54508      .   S
    C136   O257      0.54508  1_556   S
    C138   O258      0.54505      .   S
    C42    O258      0.54505      .   S
    C138   O259      0.70518      .   S
    C130   O259      0.70518  1_556   S
    C138   O260      0.69370      .   S
    C136   O260      0.69370  1_556   S
    C139   O261      0.54505      .   S
    C43    O261      0.54505      .   S
    C139   O262      0.70518      .   S
    C131   O262      0.70518  1_556   S
    C139   O263      0.69370      .   S
    C137   O263      0.69370  1_556   S
    C174   O264      0.54562  1_655   S
    C66    O264      0.54562      .   S
    C174   O265      0.70551  1_655   S
    C176   O265      0.70551  1_556   S
    C175   O266      0.54561      .   S
    C67    O266      0.54561      .   S
    C175   O267      0.70551      .   S
    C177   O267      0.70551  1_556   S
    C209   O268      0.64924      .   S
    C113   O268      0.64924      .   S
    C209   O269      1.02426  1_545   S
    C3     O269      1.02426      .   S
    C208   O270      0.64897      .   S
    C112   O270      0.64897      .   S
    C208   O271      1.02424  1_545   S
    C2     O271      1.02424      .   S
    C115   O272      0.74826      .   S
    C113   O272      0.74826      .   S
    C115   O273      0.70347      .   S
    C125   O273      0.70347      .   S
    C115   O274      0.70040      .   S
    C117   O274      0.70040  1_556   S
    C114   O275      0.74827      .   S
    C112   O275      0.74827      .   S
    C114   O276      0.70347      .   S
    C124   O276      0.70347      .   S
    C114   O277      0.70039      .   S
    C116   O277      0.70039  1_556   S
    C203   O278      0.67819      .   S
    C191   O278      0.67819      .   S
    C203   O279      1.04564      .   S
    C3     O279      1.04564      .   S
    C202   O280      0.67818      .   S
    C190   O280      0.67818      .   S
    C202   O281      1.04559      .   S
    C2     O281      1.04559      .   S
    C189   O282      0.69068      .   S
    C191   O282      0.69068      .   S
    C189   O283      0.54430      .   S
    C77    O283      0.54430      .   S
    C188   O284      0.69065      .   S
    C190   O284      0.69065      .   S
    C188   O285      0.54421      .   S
    C76    O285      0.54421      .   S
    C19    O286      0.54554      .   S
    C107   O286      0.54554      .   S
    C18    O287      0.54533      .   S
    C106   O287      0.54533      .   S
    C123   O288      0.69344      .   S
    C125   O288      0.69344      .   S
    C123   O289      0.54501      .   S
    C29    O289      0.54501      .   S
    C122   O290      0.69344      .   S
    C124   O290      0.69344      .   S
    C122   O291      0.54501      .   S
    C28    O291      0.54501      .   S
    C112   O292      0.63083      .   S
    C210   O292      0.63083      .   S
    C113   O293      0.63064      .   S
    C211   O293      0.63064      .   S
    C191   O294      0.54637      .   S
    C79    O294      0.54637      .   S
    C190   O295      0.54636      .   S
    C78    O295      0.54636      .   S
    C125   O296      0.54460      .   S
    C31    O296      0.54460      .   S
    C124   O297      0.54460      .   S
    C30    O297      0.54460      .   S
    C3     O298      0.98821      .   S
    C213   O298      0.98821      .   S
    C3     O299      1.02797      .   S
    C197   O299      1.02797      .   S
    C2     O300      0.98805      .   S
    C212   O300      0.98805      .   S
    C2     O301      1.02799      .   S
    C196   O301      1.02799      .   S
    C17    O302      0.56958  1_545   S
    C105   O302      0.56958      .   S
    C16    O303      0.56984  1_545   S
    C104   O303      0.56984      .   S
    C106   O304      0.69252      .   S
    C104   O304      0.69252      .   S
    C106   O305      0.67629      .   S
    C197   O305      0.67629      .   S
    C107   O306      0.69224      .   S
    C105   O306      0.69224      .   S
    C107   O307      0.67599  1_655   S
    C196   O307      0.67599      .   S
    C105   O308      0.70569      .   S
    C103   O308      0.70569      .   S
    C104   O309      0.70529      .   S
    C102   O309      0.70529      .   S
    C212   O310      0.65324      .   S
    C140   O310      0.65324      .   S
    C213   O311      0.65289      .   S
    C141   O311      0.65289      .   S
    C196   O312      0.67707      .   S
    C108   O312      0.67707      .   S
    C197   O313      0.67702      .   S
    C109   O313      0.67702      .   S
    C51    O314      0.54397      .   S
    C153   O314      0.54397      .   S
    C50    O315      0.51519      .   S
    C152   O315      0.51519      .   S
    C140   O316      0.62601      .   S
    C214   O316      0.62601      .   S
    C140   O317      0.75095      .   S
    C142   O317      0.75095      .   S
    C141   O318      0.62601      .   S
    C215   O318      0.62601      .   S
    C141   O319      0.75098      .   S
    C143   O319      0.75098      .   S
    C152   O320      0.71420      .   S
    C142   O320      0.71420      .   S
    C152   O321      0.71472      .   S
    C150   O321      0.71472      .   S
    C153   O322      0.70122      .   S
    C143   O322      0.70122      .   S
    C153   O323      0.69522      .   S
    C151   O323      0.69522      .   S
    C14    O324      0.55213  1_545   S
    C100   O324      0.55213      .   S
    C15    O325      0.55213  1_545   S
    C101   O325      0.55213      .   S
    C103   O326      0.72622      .   S
    C101   O326      0.72622      .   S
    C103   O327      0.70548      .   S
    C111   O327      0.70548      .   S
    C102   O328      0.72619      .   S
    C100   O328      0.72619      .   S
    C102   O329      0.70546      .   S
    C110   O329      0.70546      .   S
    C109   O330      0.54424      .   S
    C21    O330      0.54424      .   S
    C109   O331      0.69149      .   S
    C110   O331      0.69149      .   S
    C108   O332      0.54420      .   S
    C20    O332      0.54420      .   S
    C108   O333      0.69130      .   S
    C111   O333      0.69130  1_655   S
    C49    O334      0.54556      .   S
    C150   O334      0.54556      .   S
    C48    O335      0.54529      .   S
    C151   O335      0.54529  1_655   S
    C143   O336      0.70300      .   S
    C145   O336      0.70300      .   S
    C142   O337      0.70300      .   S
    C144   O337      0.70300      .   S
    C100   O338      0.67066      .   S
    C98    O338      0.67066  1_545   S
    C101   O339      0.67055      .   S
    C99    O339      0.67055  1_545   S
    C151   O340      0.70538      .   S
    C149   O340      0.70538      .   S
    C150   O341      0.70538      .   S
    C148   O341      0.70538      .   S
    C110   O342      0.54454      .   S
    C22    O342      0.54454      .   S
    C111   O343      0.54452      .   S
    C23    O343      0.54452      .   S
    C7     O344      0.54565      .   S
    C91    O344      0.54565      .   S
    C6     O345      0.54531      .   S
    C90    O345      0.54531      .   S
    C99    O346      0.55373  1_545   S
    C13    O346      0.55373      .   S
    C99    O347      0.73064      .   S
    C93    O347      0.73064      .   S
    C98    O348      0.55366  1_545   S
    C12    O348      0.55366      .   S
    C98    O349      0.73062      .   S
    C92    O349      0.73062      .   S
    C91    O350      0.70723      .   S
    C93    O350      0.70723      .   S
    C91    O351      0.69421      .   S
    C89    O351      0.69421      .   S
    C90    O352      0.70723      .   S
    C92    O352      0.70723      .   S
    C90    O353      0.69405      .   S
    C88    O353      0.69405      .   S
    C144   O354      0.54472      .   S
    C44    O354      0.54472      .   S
    C144   O355      0.69400      .   S
    C146   O355      0.69400      .   S
    C145   O356      0.54467      .   S
    C45    O356      0.54467      .   S
    C145   O357      0.69390      .   S
    C147   O357      0.69390      .   S
    C148   O358      0.70717      .   S
    C146   O358      0.70717      .   S
    C148   O359      0.72791      .   S
    C155   O359      0.72791      .   S
    C149   O360      0.70711      .   S
    C147   O360      0.70711      .   S
    C149   O361      0.72766  1_655   S
    C154   O361      0.72766      .   S
    C52    O362      0.54744      .   S
    C154   O362      0.54744      .   S
    C53    O363      0.54752      .   S
    C155   O363      0.54752      .   S
    C5     O364      0.54475      .   S
    C89    O364      0.54475      .   S
    C4     O365      0.54457      .   S
    C88    O365      0.54457      .   S
    C92    O366      0.70552      .   S
    C94    O366      0.70552      .   S
    C93    O367      0.70550      .   S
    C95    O367      0.70550      .   S
    C88    O368      0.70337      .   S
    C86    O368      0.70337      .   S
    C89    O369      0.70304      .   S
    C87    O369      0.70304      .   S
    C147   O370      0.54549      .   S
    C47    O370      0.54549      .   S
    C146   O371      0.54532      .   S
    C46    O371      0.54532      .   S
    C154   O372      0.67796      .   S
    C156   O372      0.67796      .   S
    C155   O373      0.67786      .   S
    C157   O373      0.67786      .   S
    C63    O374      0.54478      .   S
    C167   O374      0.54478      .   S
    C62    O375      0.54451      .   S
    C166   O375      0.54451      .   S
    C167   O376      0.69131      .   S
    C165   O376      0.69131      .   S
    C167   O377      0.70545      .   S
    C159   O377      0.70545      .   S
    C166   O378      0.69130      .   S
    C164   O378      0.69130      .   S
    C166   O379      0.70545      .   S
    C158   O379      0.70545      .   S
    C95    O380      0.53193      .   S
    C9     O380      0.53193      .   S
    C95    O381      0.69531      .   S
    C97    O381      0.69531      .   S
    C94    O382      0.53190      .   S
    C8     O382      0.53190      .   S
    C94    O383      0.69516      .   S
    C96    O383      0.69516      .   S
    C156   O384      0.72597      .   S
    C158   O384      0.72597      .   S
    C156   O385      0.54654      .   S
    C54    O385      0.54654      .   S
    C157   O386      0.72594      .   S
    C159   O386      0.72594      .   S
    C157   O387      0.54652      .   S
    C55    O387      0.54652      .   S
    C60    O388      0.54417      .   S
    C164   O388      0.54417      .   S
    C61    O389      0.54418      .   S
    C165   O389      0.54418      .   S
    C87    O390      0.70115      .   S
    C97    O390      0.70115      .   S
    C87    O391      0.75163      .   S
    C85    O391      0.75163      .   S
    C86    O392      0.70099      .   S
    C96    O392      0.70099      .   S
    C86    O393      0.74890      .   S
    C84    O393      0.74890  1_655   S
    C207   O394      0.62267      .   S
    C84    O394      0.62267      .   S
    C206   O395      0.62596      .   S
    C85    O395      0.62596      .   S
    C164   O396      0.67712      .   S
    C200   O396      0.67712      .   S
    C165   O397      0.67709      .   S
    C201   O397      0.67709      .   S
    C159   O398      0.70525      .   S
    C161   O398      0.70525      .   S
    C158   O399      0.70524      .   S
    C160   O399      0.70524      .   S
    C96    O400      0.54418      .   S
    C10    O400      0.54418      .   S
    C97    O401      0.54388      .   S
    C11    O401      0.54388      .   S
    C84    O402      0.65859      .   S
    C204   O402      0.65859  1_455   S
    C85    O403      0.65269      .   S
    C205   O403      0.65269      .   S
    C200   O404      0.67622      .   S
    C162   O404      0.67622      .   S
    C200   O405      1.02583      .   S
    C0     O405      1.02583      .   S
    C201   O406      0.67623      .   S
    C163   O406      0.67623      .   S
    C201   O407      1.02583      .   S
    C1     O407      1.02583      .   S
    C204   O408      0.98894  1_455   S
    C1     O408      0.98894      .   S
    C205   O409      0.98911      .   S
    C0     O409      0.98911      .   S
    C161   O410      0.69243      .   S
    C163   O410      0.69243      .   S
    C161   O411      0.54436      .   S
    C57    O411      0.54436      .   S
    C160   O412      0.69242      .   S
    C162   O412      0.69242      .   S
    C160   O413      0.54434      .   S
    C56    O413      0.54434      .   S
    C71    O414      0.54465      .   S
    C181   O414      0.54465      .   S
    C70    O415      0.54464      .   S
    C180   O415      0.54464      .   S
    C38    O416      0.54642      .   S
    C134   O416      0.54642      .   S
    C39    O417      0.54642      .   S
    C135   O417      0.54642      .   S
    C218   O418      0.63042      .   S
    C168   O418      0.63042      .   S
    C219   O419      0.63043      .   S
    C169   O419      0.63043      .   S
    C162   O420      0.54566      .   S
    C58    O420      0.54566      .   S
    C163   O421      0.54564      .   S
    C59    O421      0.54564      .   S
    C0     O422      1.04383      .   S
    C198   O422      1.04383  1_565   S
    C0     O423      1.02210      .   S
    C216   O423      1.02210      .   S
    C1     O424      1.04384      .   S
    C199   O424      1.04384  1_565   S
    C1     O425      1.00840      .   S
    C217   O425      1.00840      .   S
    C68    O426      0.54505      .   S
    C179   O426      0.54505  1_655   S
    C69    O427      0.54505      .   S
    C178   O427      0.54505      .   S
    C37    O428      0.54435      .   S
    C133   O428      0.54435      .   S
    C36    O429      0.54435      .   S
    C132   O429      0.54435      .   S
    C180   O430      0.69340      .   S
    C178   O430      0.69340      .   S
    C180   O431      0.70352      .   S
    C170   O431      0.70352      .   S
    C181   O432      0.69339      .   S
    C179   O432      0.69339      .   S
    C181   O433      0.70352      .   S
    C171   O433      0.70352      .   S
    C135   O434      0.69077      .   S
    C133   O434      0.69077      .   S
    C135   O435      0.67829      .   S
    C199   O435      0.67829      .   S
    C134   O436      0.69077      .   S
    C132   O436      0.69077      .   S
    C134   O437      0.67830      .   S
    C198   O437      0.67830      .   S
    C168   O438      0.74848      .   S
    C170   O438      0.74848      .   S
    C168   O439      0.64915      .   S
    C216   O439      0.64915      .   S
    C169   O440      0.74846      .   S
    C171   O440      0.74846      .   S
    C169   O441      0.64621      .   S
    C217   O441      0.64621      .   S
    C178   O442      0.70572      .   S
    C177   O442      0.70572      .   S
    C179   O443      0.70569  1_655   S
    C176   O443      0.70569      .   S
    C26    O444      0.54561      .   S
    C118   O444      0.54561      .   S
    C27    O445      0.54561      .   S
    C119   O445      0.54561      .   S
    C132   O446      0.70566      .   S
    C130   O446      0.70566      .   S
    C133   O447      0.70566      .   S
    C131   O447      0.70566      .   S
    C83    O448      0.54530      .   S
    C195   O448      0.54530      .   S
    C82    O449      0.54528      .   S
    C194   O449      0.54528      .   S
    C75    O450      0.54604      .   S
    C185   O450      0.54604      .   S
    C74    O451      0.54602      .   S
    C184   O451      0.54602      .   S
    C199   O452      0.67493      .   S
    C137   O452      0.67493      .   S
    C198   O453      0.67531      .   S
    C136   O453      0.67531      .   S
    C33    O454      0.54652      .   S
    C127   O454      0.54652      .   S
    C32    O455      0.54652      .   S
    C126   O455      0.54652      .   S
    C25    O456      0.54368      .   S
    C117   O456      0.54368      .   S
    C24    O457      0.54368      .   S
    C116   O457      0.54368      .   S
    C118   O458      0.69495      .   S
    C116   O458      0.69495      .   S
    C119   O459      0.69494      .   S
    C117   O459      0.69494      .   S
