# CIF file generated by openbabel 2.4.90, see http://openbabel.sf.net
data_I
_chemical_name_common ''
_cell_length_a 15.137
_cell_length_b 17.67
_cell_length_c 15.41
_cell_angle_alpha 61.016
_cell_angle_beta 89.944
_cell_angle_gamma 89.954
_space_group_name_H-M_alt 'P 1'
_space_group_name_Hall 'P 1'
loop_
    _symmetry_equiv_pos_as_xyz
    x,y,z
loop_
    _atom_site_label
    _atom_site_type_symbol
    _atom_site_fract_x
    _atom_site_fract_y
    _atom_site_fract_z
    _atom_site_occupancy
    B0      B    0.12911   0.81173   0.77965   1.000
    B1      B    0.13678   0.74020   0.72842   1.000
    B2      B    0.22509   0.66742   0.78847   1.000
    B3      B    0.27201   0.69311   0.87730   1.000
    B4      B    0.21272   0.78262   0.87147   1.000
    B5      B    0.22771   0.87150   0.75280   1.000
    B6      B    0.18072   0.84565   0.66395   1.000
    B7      B    0.24014   0.75639   0.66965   1.000
    B8      B    0.32381   0.72729   0.76147   1.000
    B9      B    0.31576   0.79836   0.81312   1.000
    B10     B    0.92813   0.57986   0.43091   1.000
    B11     B    0.04402   0.58938   0.40912   1.000
    B12     B    0.08613   0.48448   0.44363   1.000
    B13     B    0.00000   0.40990   0.48716   1.000
    B14     B    0.89855   0.46867   0.47929   1.000
    B15     B    0.62934   0.68645   0.72309   1.000
    B16     B    0.63662   0.75802   0.77430   1.000
    B17     B    0.72484   0.83091   0.71423   1.000
    B18     B    0.77208   0.80525   0.62541   1.000
    B19     B    0.71309   0.71566   0.63126   1.000
    B20     B    0.72809   0.62682   0.74994   1.000
    B21     B    0.68077   0.65262   0.83878   1.000
    B22     B    0.73988   0.74197   0.83305   1.000
    B23     B    0.82369   0.77116   0.74123   1.000
    B24     B    0.81603   0.70006   0.68960   1.000
    B25     B    0.42790   0.91853   0.07168   1.000
    B26     B    0.54376   0.90847   0.09361   1.000
    B27     B    0.58627   0.01319   0.05925   1.000
    B28     B    0.49643   0.08816   0.01568   1.000
    B29     B    0.39875   0.02984   0.02336   1.000
    B30     B    0.86714   0.18649   0.22301   1.000
    B31     B    0.85962   0.25816   0.27408   1.000
    B32     B    0.77136   0.33098   0.21400   1.000
    B33     B    0.72431   0.30519   0.12529   1.000
    B34     B    0.78348   0.21556   0.13125   1.000
    B35     B    0.76848   0.12680   0.25000   1.000
    B36     B    0.81559   0.15275   0.33871   1.000
    B37     B    0.75631   0.24212   0.33289   1.000
    B38     B    0.67258   0.27119   0.24112   1.000
    B39     B    0.68047   0.19999   0.18962   1.000
    B40     B    0.06823   0.41778   0.57189   1.000
    B41     B    0.95233   0.40826   0.59368   1.000
    B42     B    0.91023   0.51317   0.55917   1.000
    B43     B    0.00035   0.58774   0.51564   1.000
    B44     B    0.09780   0.52897   0.52351   1.000
    B45     B    0.36699   0.31202   0.27934   1.000
    B46     B    0.35968   0.24023   0.22844   1.000
    B47     B    0.27146   0.16740   0.28867   1.000
    B48     B    0.22423   0.19333   0.37728   1.000
    B49     B    0.28325   0.28302   0.37114   1.000
    B50     B    0.26825   0.37169   0.25232   1.000
    B51     B    0.31555   0.34561   0.16370   1.000
    B52     B    0.25643   0.25616   0.16971   1.000
    B53     B    0.17262   0.22718   0.26151   1.000
    B54     B    0.18030   0.29850   0.31283   1.000
    B55     B    0.56868   0.08004   0.93098   1.000
    B56     B    0.45283   0.09010   0.90902   1.000
    B57     B    0.41033   0.98538   0.94338   1.000
    B58     B    0.50014   0.91040   0.98698   1.000
    B59     B    0.59783   0.00000   0.97929   1.000
    H60     H    0.05860   0.83402   0.79242   1.000
    H61     H    0.07151   0.71549   0.70760   1.000
    H62     H    0.21934   0.59406   0.80737   1.000
    H63     H    0.29664   0.63665   0.95490   1.000
    H64     H    0.19806   0.78569   0.94511   1.000
    H65     H    0.23393   0.00000   0.73347   1.000
    H66     H    0.15584   0.90195   0.58641   1.000
    H67     H    0.25467   0.75290   0.59619   1.000
    H68     H    0.39428   0.70469   0.74893   1.000
    H69     H    0.38103   0.82254   0.83447   1.000
    H70     H    0.87993   0.63486   0.37502   1.000
    H71     H    0.07300   0.65055   0.33877   1.000
    H72     H    0.14308   0.47589   0.39607   1.000
    H73     H    0.00000   0.35253   0.46806   1.000
    H74     H    0.83107   0.45052   0.45496   1.000
    H75     H    0.55896   0.66404   0.71037   1.000
    H76     H    0.57122   0.78263   0.79515   1.000
    H77     H    0.71888   0.90425   0.69533   1.000
    H78     H    0.79672   0.86173   0.54780   1.000
    H79     H    0.69864   0.71255   0.55764   1.000
    H80     H    0.73454   0.55347   0.76928   1.000
    H81     H    0.65591   0.59628   0.91634   1.000
    H82     H    0.75422   0.74547   0.90651   1.000
    H83     H    0.89406   0.79385   0.75374   1.000
    H84     H    0.88145   0.67597   0.66823   1.000
    H85     H    0.37946   0.86373   0.12746   1.000
    H86     H    0.57247   0.84714   0.16396   1.000
    H87     H    0.64321   0.02148   0.10691   1.000
    H88     H    0.49435   0.14550   0.03485   1.000
    H89     H    0.33130   0.04827   0.04761   1.000
    H90     H    0.93760   0.16410   0.21027   1.000
    H91     H    0.92495   0.28284   0.29482   1.000
    H92     H    0.77720   0.40436   0.19498   1.000
    H93     H    0.69972   0.36162   0.04766   1.000
    H94     H    0.79808   0.21239   0.05767   1.000
    H95     H    0.76216   0.05341   0.26944   1.000
    H96     H    0.84046   0.09647   0.41629   1.000
    H97     H    0.74184   0.24570   0.40631   1.000
    H98     H    0.60215   0.29388   0.25364   1.000
    H99     H    0.61515   0.17584   0.16834   1.000
    H100    H    0.11643   0.36278   0.62778   1.000
    H101    H    0.92336   0.34709   0.66404   1.000
    H102    H    0.85328   0.52175   0.60673   1.000
    H103    H    0.00261   0.64511   0.53474   1.000
    H104    H    0.16529   0.54713   0.54783   1.000
    H105    H    0.43738   0.33448   0.29197   1.000
    H106    H    0.42509   0.21551   0.20772   1.000
    H107    H    0.27739   0.09399   0.30780   1.000
    H108    H    0.19958   0.13697   0.45496   1.000
    H109    H    0.29769   0.28633   0.44465   1.000
    H110    H    0.26182   0.44509   0.23275   1.000
    H111    H    0.34044   0.40182   0.08607   1.000
    H112    H    0.24209   0.25246   0.09637   1.000
    H113    H    0.10225   0.20444   0.24908   1.000
    H114    H    0.11489   0.32270   0.33406   1.000
    H115    H    0.61711   0.13485   0.87519   1.000
    H116    H    0.42411   0.15143   0.83867   1.000
    H117    H    0.35337   0.97709   0.89574   1.000
    H118    H    0.50221   0.85306   0.96784   1.000
    H119    H    0.66527   0.00000   0.95501   1.000
    C120    C    0.16173   0.70649   0.85012   1.000
    C121    C    0.29108   0.83249   0.69097   1.000
    C122    C    0.35612   0.89558   0.61449   1.000
    C123    C    0.00000   0.51462   0.39509   1.000
    C124    C    0.66177   0.79175   0.65259   1.000
    C125    C    0.79114   0.66595   0.81175   1.000
    C126    C    0.48231   0.98345   0.10767   1.000
    C127    C    0.83459   0.29174   0.15243   1.000
    C128    C    0.70524   0.16600   0.31174   1.000
    C129    C    0.01404   0.48302   0.60771   1.000
    C130    C    0.33455   0.20676   0.35009   1.000
    C131    C    0.20518   0.33236   0.19073   1.000
    C132    C    0.51431   0.01510   0.89498   1.000
    O133    O    0.37021   0.88994   0.53669   1.000
loop_
    _geom_bond_atom_site_label_1
    _geom_bond_atom_site_label_2
    _geom_bond_distance
    _geom_bond_site_symmetry_2
    _ccdc_geom_bond_type
    B28    H88       1.18512      .   S
    B28    B56       1.75667  1_554   S
    B28    B55       1.76032  1_554   S
    B29    H89       1.18525      .   S
    B29    C126      1.71151  1_545   S
    B29    B56       1.75744  1_554   S
    B29    B57       1.76195  1_544   S
    H93    B33       1.18669      .   S
    H94    B34       1.18275      .   S
    B27    H87       1.18724      .   S
    B27    C126      1.71111  1_545   S
    B27    B59       1.37151  1_554   S
    B25    C126      1.70907      .   S
    B25    H85       1.18638      .   S
    B25    B57       1.76414  1_554   S
    B25    B58       1.76033  1_554   S
    H111   B51       1.18653      .   S
    B26    H86       1.18327      .   S
    B26    B58       1.75637  1_554   S
    H112   B52       1.18357      .   S
    B33    C127      1.70943      .   S
    B33    B39       1.75875      .   S
    B33    B38       1.76603      .   S
    B34    B39       1.75330      .   S
    B34    B35       1.75448      .   S
    C127   B32       1.71229      .   S
    C127   B30       1.70991      .   S
    B51    C131      1.71002      .   S
    B51    B46       1.76293      .   S
    B51    B45       1.76386      .   S
    H99    B39       1.18508      .   S
    B52    B46       1.75963      .   S
    B52    B47       1.75662      .   S
    C131   B50       1.71388      .   S
    C131   B53       1.70960      .   S
    H92    B32       1.18609      .   S
    H106   B46       1.18603      .   S
    H90    B30       1.18601      .   S
    B32    B38       1.76060      .   S
    B32    B37       1.75661      .   S
    B30    B35       1.75842      .   S
    B30    B36       1.76381      .   S
    H110   B50       1.18464      .   S
    B38    H98       1.18675      .   S
    B38    C128      1.70960      .   S
    H113   B53       1.18677      .   S
    B35    H95       1.18493      .   S
    B35    C128      1.71381      .   S
    B50    B45       1.75839      .   S
    B50    B49       1.75466      .   S
    B53    B47       1.76053      .   S
    B53    B48       1.76607      .   S
    B31    H91       1.18604      .   S
    B31    B37       1.75968      .   S
    B31    B36       1.76300      .   S
    B45    H105      1.18601      .   S
    B45    C130      1.71012      .   S
    B47    H107      1.18605      .   S
    B47    C130      1.71243      .   S
    C128   B36       1.71004      .   S
    B54    H114      1.18513      .   S
    B54    B49       1.75346      .   S
    B54    B48       1.75876      .   S
    B37    H97       1.18357      .   S
    B36    H96       1.18650      .   S
    H71    B11       1.18331      .   S
    C130   B48       1.70972      .   S
    B49    H109      1.18279      .   S
    H70    B10       1.18635      .   S
    B48    H108      1.18670      .   S
    C123   B11       1.58567      .   S
    C123   B12       1.46884      .   S
    C123   B13       1.70075      .   S
    H72    B12       1.18729      .   S
    B11    B43       1.75613      .   S
    B11    B44       1.75709      .   S
    B10    B43       1.76028  1_655   S
    B10    B42       1.76375      .   S
    B12    B13       1.74084      .   S
    B12    B44       1.76162      .   S
    H74    B14       1.18519      .   S
    H73    B13       1.18457      .   S
    B14    B42       1.76159      .   S
    B14    B41       1.75709      .   S
    B13    B40       1.72339      .   S
    B43    H103      1.18510      .   S
    B44    H104      1.18520      .   S
    B44    C129      1.71107      .   S
    O133   C122      1.26809      .   S
    H78    B18       1.18671      .   S
    H79    B19       1.18277      .   S
    B42    H102      1.18727      .   S
    B42    C129      1.71101  1_655   S
    B40    B41       1.77855  1_455   S
    B40    C129      1.70888      .   S
    B40    H100      1.18635      .   S
    H66    B6        1.18650      .   S
    B41    H101      1.18329      .   S
    H67    B7        1.18359      .   S
    C122   C121      1.52551      .   S
    B18    C124      1.70967      .   S
    B18    B24       1.75879      .   S
    B18    B23       1.76601      .   S
    B19    B24       1.75339      .   S
    B19    B20       1.75454      .   S
    C124   B17       1.71240      .   S
    C124   B15       1.71014      .   S
    B6     C121      1.71013      .   S
    B6     B1        1.76297      .   S
    B6     B0        1.76385      .   S
    H84    B24       1.18512      .   S
    B7     B1        1.75965      .   S
    B7     B2        1.75671      .   S
    C121   B5        1.71374      .   S
    C121   B8        1.70979      .   S
    H77    B17       1.18604      .   S
    H61    B1        1.18606      .   S
    H75    B15       1.18599      .   S
    B17    B23       1.76060      .   S
    B17    B22       1.75660      .   S
    B15    B20       1.75839      .   S
    B15    B21       1.76378      .   S
    B23    H83       1.18676      .   S
    B23    C125      1.70957      .   S
    H68    B8        1.18677      .   S
    B20    H80       1.18464      .   S
    B20    C125      1.71384      .   S
    B5     B0        1.75840      .   S
    B5     B4        1.75457      .   S
    B8     B2        1.76068      .   S
    B8     B3        1.76612      .   S
    B16    H76       1.18602      .   S
    B16    B22       1.75965      .   S
    B16    B21       1.76299      .   S
    B0     H60       1.18602      .   S
    B0     C120      1.70993      .   S
    B2     H62       1.18608      .   S
    B2     C120      1.71238      .   S
    C125   B21       1.70995      .   S
    B9     H69       1.18510      .   S
    B9     B4        1.75344      .   S
    B9     B3        1.75886      .   S
    B22    H82       1.18356      .   S
    H116   B56       1.18333      .   S
    B21    H81       1.18653      .   S
    C120   B3        1.70960      .   S
    B4     H64       1.18276      .   S
    H115   B55       1.18634      .   S
    B3     H63       1.18670      .   S
    C132   B55       1.70914      .   S
    C132   B57       1.71133  1_545   S
    C132   B58       1.71377  1_545   S
    H117   B57       1.18730      .   S
    B55    B59       1.31475      .   S
    H119   B59       1.08689      .   S
    H118   B58       1.18505      .   S
