# CIF file generated by openbabel 2.4.90, see http://openbabel.sf.net
data_I
_chemical_name_common ''
_cell_length_a 15.137
_cell_length_b 17.67
_cell_length_c 15.41
_cell_angle_alpha 61.016
_cell_angle_beta 89.944
_cell_angle_gamma 89.954
_space_group_name_H-M_alt 'P 1'
_space_group_name_Hall 'P 1'
loop_
    _symmetry_equiv_pos_as_xyz
    x,y,z
loop_
    _atom_site_label
    _atom_site_type_symbol
    _atom_site_fract_x
    _atom_site_fract_y
    _atom_site_fract_z
    _atom_site_occupancy
    Lv0     Lv   0.23795   0.77247   0.75530   1.000
    Lv1     Lv   0.26987   0.26946   0.27051   1.000
    Lv2     Lv   0.76993   0.22898   0.23198   1.000
    Lv3     Lv   0.23393   0.00000   0.73347   1.000
    Lv4     Lv   0.99945   0.49882   0.50140   1.000
    Lv5     Lv   0.72645   0.72895   0.73207   1.000
    Lv6     Lv   0.49829   0.00296   0.00132   1.000
