# CIF file generated by openbabel 2.4.90, see http://openbabel.sf.net
data_I
_chemical_name_common ''
_cell_length_a 15.137
_cell_length_b 17.67
_cell_length_c 15.41
_cell_angle_alpha 61.016
_cell_angle_beta 89.944
_cell_angle_gamma 89.954
_space_group_name_H-M_alt 'P 1'
_space_group_name_Hall 'P 1'
loop_
    _symmetry_equiv_pos_as_xyz
    x,y,z
loop_
    _atom_site_label
    _atom_site_type_symbol
    _atom_site_fract_x
    _atom_site_fract_y
    _atom_site_fract_z
    _atom_site_occupancy
    C0      C    0.09799   0.64569   0.92934   1.000
    C1      C    0.00000   0.52974   0.29036   1.000
    C2      C    0.59806   0.85248   0.57332   1.000
    C3      C    0.85620   0.60298   0.88823   1.000
    C4      C    0.46757   0.96828   0.21247   1.000
    C5      C    0.89828   0.35241   0.07308   1.000
    C6      C    0.64015   0.10307   0.38826   1.000
    C7      C    0.02870   0.46790   0.71245   1.000
    C8      C    0.39826   0.14606   0.42940   1.000
    C9      C    0.14013   0.39525   0.11416   1.000
    C10     C    0.52936   0.03018   0.79027   1.000
