# CIF file generated by openbabel 2.4.90, see http://openbabel.sf.net
data_I
_chemical_name_common ''
_cell_length_a 15.137
_cell_length_b 17.67
_cell_length_c 15.41
_cell_angle_alpha 61.016
_cell_angle_beta 89.944
_cell_angle_gamma 89.954
_space_group_name_H-M_alt 'P 1'
_space_group_name_Hall 'P 1'
loop_
    _symmetry_equiv_pos_as_xyz
    x,y,z
loop_
    _atom_site_label
    _atom_site_type_symbol
    _atom_site_fract_x
    _atom_site_fract_y
    _atom_site_fract_z
    _atom_site_occupancy
    N0      N    0.23795   0.77247   0.75530   1.000
    N1      N    0.26987   0.26946   0.27051   1.000
    N2      N    0.76993   0.22898   0.23198   1.000
    N3      N    0.23393   0.00000   0.73347   1.000
    N4      N    0.99945   0.49882   0.50140   1.000
    N5      N    0.72645   0.72895   0.73207   1.000
    N6      N    0.49829   0.00296   0.00132   1.000
    Zr7     Zr   0.99978   0.49900   0.00126   1.000
    O8      O    0.09184   0.61164   0.91189   1.000
    O9      O    0.11052   0.40781   0.10637   1.000
    O10     O    0.88742   0.59035   0.89614   1.000
    O11     O    0.90898   0.38726   0.08681   1.000
    O12     O    0.99975   0.50475   0.21166   1.000
    O13     O    0.00510   0.49307   0.79100   1.000
    Zr14    Zr   0.51327   0.01545   0.49312   1.000
    O15     O    0.41570   0.11919   0.41162   1.000
    O16     O    0.51167   0.01412   0.70755   1.000
    O17     O    0.59572   0.89549   0.58282   1.000
    O18     O    0.61729   0.09860   0.39206   1.000
    O19     O    0.49994   0.00243   0.28691   1.000
    O20     O    0.42189   0.93207   0.55244   1.000
loop_
    _geom_bond_atom_site_label_1
    _geom_bond_atom_site_label_2
    _geom_bond_distance
    _geom_bond_site_symmetry_2
    _ccdc_geom_bond_type
    Zr7    O8        2.26810  1_654   S
    N0     O8        3.48482      .   S
    Zr7    O9        2.34546  1_655   S
    N1     O9        3.49316      .   S
    Zr7    O10       2.36417  1_554   S
    N5     O10       3.51124      .   S
    Zr7    O11       2.23688      .   S
    N2     O11       3.34571      .   S
    Zr7    O12       3.29275      .   S
    N4     O12       4.41508      .   S
    Zr7    O13       3.29304  1_654   S
    N4     O13       4.41526  1_655   S
    Zr14   O15       2.21063      .   S
    N1     O15       3.32508      .   S
    Zr14   O16       3.29311      .   S
    N6     O16       4.43931  1_554   S
    Zr14   O17       2.26298  1_545   S
    N5     O17       3.36241      .   S
    Zr14   O18       2.20115      .   S
    N2     O18       3.34973      .   S
    Zr14   O19       3.30170      .   S
    N6     O19       4.39641      .   S
    Zr14   O20       1.90130  1_545   S
    N0     O20       4.11459      .   S
