# CIF file generated by openbabel 2.4.90, see http://openbabel.sf.net
data_I
_chemical_name_common ''
_cell_length_a 13.928
_cell_length_b 19.233
_cell_length_c 17.934
_cell_angle_alpha 102.2
_cell_angle_beta 96.875
_cell_angle_gamma 105.929
_space_group_name_H-M_alt 'P 1'
_space_group_name_Hall 'P 1'
loop_
    _symmetry_equiv_pos_as_xyz
    x,y,z
loop_
    _atom_site_label
    _atom_site_type_symbol
    _atom_site_fract_x
    _atom_site_fract_y
    _atom_site_fract_z
    _atom_site_occupancy
    C0      C    0.03693   0.27154   0.24991   1.000
    C1      C    0.03693   0.77154   0.24991   1.000
    C2      C    0.53692   0.27154   0.24991   1.000
    C3      C    0.53692   0.77154   0.24991   1.000
    C4      C    0.08873   0.10140   0.25017   1.000
    C5      C    0.08873   0.60140   0.25017   1.000
    C6      C    0.58871   0.10140   0.25017   1.000
    C7      C    0.58871   0.60140   0.25017   1.000
    C8      C    0.46304   0.22846   0.75000   1.000
    C9      C    0.46305   0.72846   0.75000   1.000
    C10     C    0.96303   0.22846   0.75000   1.000
    C11     C    0.96303   0.72847   0.75000   1.000
    C12     C    0.41125   0.39860   0.74900   1.000
    C13     C    0.41126   0.89860   0.74980   1.000
    C14     C    0.91123   0.39860   0.74900   1.000
    C15     C    0.91124   0.89860   0.74900   1.000
    C16     C    0.40020   0.02545   0.02344   1.000
    C17     C    0.40020   0.52545   0.02344   1.000
    C18     C    0.90018   0.02545   0.02344   1.000
    C19     C    0.90018   0.52545   0.02344   1.000
    C20     C    0.11183   0.23564   0.02320   1.000
    C21     C    0.11183   0.73564   0.02320   1.000
    C22     C    0.61181   0.23564   0.02320   1.000
    C23     C    0.61181   0.73564   0.02320   1.000
    C24     C    0.07918   0.20024   0.87989   1.000
    C25     C    0.07919   0.70024   0.87989   1.000
    C26     C    0.57917   0.20024   0.87989   1.000
    C27     C    0.57917   0.70024   0.87989   1.000
    C28     C    0.36010   0.99075   0.88017   1.000
    C29     C    0.36010   0.49075   0.88017   1.000
    C30     C    0.86008   0.99076   0.88017   1.000
    C31     C    0.86008   0.49076   0.88017   1.000
    C32     C    0.18697   0.35779   0.47613   1.000
    C33     C    0.18698   0.85779   0.47613   1.000
    C34     C    0.68695   0.35779   0.47613   1.000
    C35     C    0.68695   0.85779   0.47613   1.000
    C36     C    0.05119   0.12915   0.47894   1.000
    C37     C    0.05120   0.62916   0.47894   1.000
    C38     C    0.55117   0.12915   0.47894   1.000
    C39     C    0.55117   0.62915   0.47894   1.000
    C40     C    0.22650   0.39531   0.62056   1.000
    C41     C    0.22651   0.89531   0.62056   1.000
    C42     C    0.72648   0.39531   0.62056   1.000
    C43     C    0.72649   0.89531   0.62056   1.000
    C44     C    0.08395   0.16592   0.62335   1.000
    C45     C    0.08395   0.66592   0.62335   1.000
    C46     C    0.58392   0.16592   0.62335   1.000
    C47     C    0.58393   0.66592   0.62335   1.000
    C48     C    0.09978   0.47455   0.97652   1.000
    C49     C    0.09978   0.97455   0.97652   1.000
    C50     C    0.59976   0.47455   0.97652   1.000
    C51     C    0.59977   0.97456   0.97650   1.000
    C52     C    0.38815   0.26436   0.97676   1.000
    C53     C    0.38816   0.76436   0.97676   1.000
    C54     C    0.88813   0.26436   0.97676   1.000
    C55     C    0.88814   0.76436   0.97676   1.000
    C56     C    0.42080   0.29976   0.12008   1.000
    C57     C    0.42080   0.79976   0.12008   1.000
    C58     C    0.92078   0.29976   0.12008   1.000
    C59     C    0.92078   0.79977   0.12008   1.000
    C60     C    0.13988   0.50924   0.11979   1.000
    C61     C    0.13989   0.00000   0.11900   1.000
    C62     C    0.63986   0.50925   0.11900   1.000
    C63     C    0.63987   0.00000   0.11980   1.000
    C64     C    0.31301   0.14221   0.52384   1.000
    C65     C    0.31302   0.64221   0.52384   1.000
    C66     C    0.81299   0.14221   0.52384   1.000
    C67     C    0.81300   0.64221   0.52384   1.000
    C68     C    0.44879   0.37085   0.52102   1.000
    C69     C    0.44879   0.87085   0.52102   1.000
    C70     C    0.94877   0.37085   0.52102   1.000
    C71     C    0.94877   0.87085   0.52102   1.000
    C72     C    0.27348   0.10469   0.37940   1.000
    C73     C    0.27348   0.60469   0.37940   1.000
    C74     C    0.77346   0.10469   0.37940   1.000
    C75     C    0.77346   0.60469   0.37940   1.000
    C76     C    0.41604   0.33408   0.37661   1.000
    C77     C    0.41604   0.83408   0.37661   1.000
    C78     C    0.91602   0.33408   0.37661   1.000
    C79     C    0.91601   0.83408   0.37661   1.000
    C80     C    0.46697   0.09285   0.86930   1.000
    C81     C    0.46697   0.59285   0.86930   1.000
    C82     C    0.96695   0.09285   0.86930   1.000
    C83     C    0.96695   0.59285   0.86930   1.000
    C84     C    0.03014   0.15392   0.11867   1.000
    C85     C    0.03014   0.65392   0.11867   1.000
    C86     C    0.53012   0.15392   0.11867   1.000
    C87     C    0.53012   0.65392   0.11867   1.000
    C88     C    0.00833   0.13269   0.03222   1.000
    C89     C    0.00833   0.63270   0.03222   1.000
    C90     C    0.50831   0.13269   0.03222   1.000
    C91     C    0.50831   0.63270   0.03222   1.000
    C92     C    0.43823   0.06346   0.99133   1.000
    C93     C    0.43823   0.56347   0.99133   1.000
    C94     C    0.93821   0.06346   0.99130   1.000
    C95     C    0.93822   0.56347   0.99133   1.000
    C96     C    0.05759   0.18192   0.99120   1.000
    C97     C    0.05760   0.68192   0.99120   1.000
    C98     C    0.55757   0.18192   0.99120   1.000
    C99     C    0.55758   0.68192   0.99120   1.000
    C100    C    0.03810   0.16190   0.91043   1.000
    C101    C    0.03811   0.66190   0.91043   1.000
    C102    C    0.53809   0.16190   0.91043   1.000
    C103    C    0.53809   0.66190   0.91043   1.000
    C104    C    0.41673   0.04398   0.91058   1.000
    C105    C    0.41673   0.54398   0.91058   1.000
    C106    C    0.91671   0.04398   0.91058   1.000
    C107    C    0.91671   0.54398   0.91058   1.000
    C108    C    0.44526   0.07196   0.78426   1.000
    C109    C    0.44526   0.57196   0.78426   1.000
    C110    C    0.94524   0.07196   0.78426   1.000
    C111    C    0.94524   0.57196   0.78426   1.000
    C112    C    0.09591   0.21916   0.38276   1.000
    C113    C    0.09591   0.71916   0.38276   1.000
    C114    C    0.59588   0.21916   0.38276   1.000
    C115    C    0.59588   0.71916   0.38276   1.000
    C116    C    0.17884   0.30487   0.71668   1.000
    C117    C    0.17884   0.80487   0.71668   1.000
    C118    C    0.67882   0.30487   0.71668   1.000
    C119    C    0.67882   0.80487   0.71668   1.000
    C120    C    0.16614   0.31632   0.50916   1.000
    C121    C    0.16614   0.81632   0.50916   1.000
    C122    C    0.66612   0.31632   0.50916   1.000
    C123    C    0.66612   0.81632   0.50916   1.000
    C124    C    0.08824   0.18729   0.51072   1.000
    C125    C    0.08824   0.68729   0.51070   1.000
    C126    C    0.58822   0.18729   0.51070   1.000
    C127    C    0.58822   0.68729   0.51070   1.000
    C128    C    0.18752   0.33706   0.58992   1.000
    C129    C    0.18752   0.83706   0.58992   1.000
    C130    C    0.68749   0.33706   0.58992   1.000
    C131    C    0.68750   0.83706   0.58992   1.000
    C132    C    0.11708   0.24132   0.46919   1.000
    C133    C    0.11709   0.74133   0.46900   1.000
    C134    C    0.61706   0.24132   0.46900   1.000
    C135    C    0.61706   0.74133   0.46900   1.000
    C136    C    0.10724   0.20810   0.59147   1.000
    C137    C    0.10724   0.70810   0.59147   1.000
    C138    C    0.60722   0.20810   0.59147   1.000
    C139    C    0.60722   0.70810   0.59140   1.000
    C140    C    0.15764   0.28310   0.63165   1.000
    C141    C    0.15765   0.78310   0.63165   1.000
    C142    C    0.65762   0.28310   0.63165   1.000
    C143    C    0.65763   0.78310   0.63165   1.000
    C144    C    0.03301   0.40715   0.13066   1.000
    C145    C    0.03302   0.90716   0.13066   1.000
    C146    C    0.53299   0.40715   0.13066   1.000
    C147    C    0.53300   0.90716   0.13066   1.000
    C148    C    0.46984   0.34608   0.88129   1.000
    C149    C    0.46985   0.84608   0.88129   1.000
    C150    C    0.96982   0.34608   0.88129   1.000
    C151    C    0.96983   0.84609   0.88129   1.000
    C152    C    0.49165   0.36730   0.96775   1.000
    C153    C    0.49166   0.86731   0.96775   1.000
    C154    C    0.99164   0.36731   0.96775   1.000
    C155    C    0.99164   0.86731   0.96775   1.000
    C156    C    0.06175   0.43654   0.00863   1.000
    C157    C    0.06175   0.93654   0.00863   1.000
    C158    C    0.56173   0.43654   0.00863   1.000
    C159    C    0.56174   0.93654   0.00863   1.000
    C160    C    0.44239   0.31808   0.00877   1.000
    C161    C    0.44240   0.81808   0.00877   1.000
    C162    C    0.94237   0.31808   0.00877   1.000
    C163    C    0.94237   0.81808   0.00877   1.000
    C164    C    0.46188   0.33810   0.08953   1.000
    C165    C    0.46188   0.83811   0.08953   1.000
    C166    C    0.96186   0.33811   0.08953   1.000
    C167    C    0.96186   0.83811   0.08953   1.000
    C168    C    0.08325   0.45602   0.08938   1.000
    C169    C    0.08326   0.95602   0.08938   1.000
    C170    C    0.58323   0.45602   0.08938   1.000
    C171    C    0.58324   0.95603   0.08938   1.000
    C172    C    0.05472   0.42804   0.21570   1.000
    C173    C    0.05472   0.92804   0.21571   1.000
    C174    C    0.55470   0.42804   0.21570   1.000
    C175    C    0.55471   0.92804   0.21571   1.000
    C176    C    0.40408   0.28084   0.61721   1.000
    C177    C    0.40408   0.78085   0.61721   1.000
    C178    C    0.90406   0.28084   0.61721   1.000
    C179    C    0.90406   0.78085   0.61721   1.000
    C180    C    0.32114   0.19513   0.28329   1.000
    C181    C    0.32115   0.69513   0.28329   1.000
    C182    C    0.82112   0.19513   0.28329   1.000
    C183    C    0.82112   0.69513   0.28329   1.000
    C184    C    0.33385   0.18368   0.49080   1.000
    C185    C    0.33385   0.68368   0.49080   1.000
    C186    C    0.83382   0.18368   0.49080   1.000
    C187    C    0.83383   0.68368   0.49080   1.000
    C188    C    0.41175   0.31271   0.48924   1.000
    C189    C    0.41175   0.81271   0.48924   1.000
    C190    C    0.91172   0.31271   0.48924   1.000
    C191    C    0.91173   0.81271   0.48924   1.000
    C192    C    0.31247   0.16294   0.41004   1.000
    C193    C    0.31247   0.66294   0.41004   1.000
    C194    C    0.81244   0.16294   0.41004   1.000
    C195    C    0.81245   0.66294   0.41000   1.000
    C196    C    0.38290   0.25868   0.53077   1.000
    C197    C    0.38290   0.75868   0.53077   1.000
    C198    C    0.88288   0.25868   0.53077   1.000
    C199    C    0.88288   0.75868   0.53077   1.000
    C200    C    0.39274   0.29190   0.40849   1.000
    C201    C    0.39275   0.79190   0.40849   1.000
    C202    C    0.89272   0.29190   0.40849   1.000
    C203    C    0.89272   0.79190   0.40849   1.000
    C204    C    0.34234   0.21690   0.36832   1.000
    C205    C    0.34234   0.71690   0.36832   1.000
    C206    C    0.84232   0.21690   0.36832   1.000
    C207    C    0.84232   0.71690   0.36832   1.000
    C208    C    0.44178   0.11872   0.73814   1.000
    C209    C    0.44178   0.61873   0.73814   1.000
    C210    C    0.94176   0.11872   0.73810   1.000
    C211    C    0.94176   0.61873   0.73814   1.000
    C212    C    0.11323   0.28275   0.76283   1.000
    C213    C    0.11323   0.78275   0.76283   1.000
    C214    C    0.61321   0.28275   0.76283   1.000
    C215    C    0.61321   0.78275   0.76283   1.000
    C216    C    0.25470   0.35587   0.83762   1.000
    C217    C    0.25470   0.85587   0.83762   1.000
    C218    C    0.75468   0.35587   0.83762   1.000
    C219    C    0.75468   0.85587   0.83762   1.000
    C220    C    0.16280   0.31549   0.83787   1.000
    C221    C    0.16281   0.81550   0.83787   1.000
    C222    C    0.66279   0.31549   0.83787   1.000
    C223    C    0.66279   0.81550   0.83787   1.000
    C224    C    0.41888   0.07670   0.66288   1.000
    C225    C    0.41888   0.57670   0.66288   1.000
    C226    C    0.91885   0.07670   0.66280   1.000
    C227    C    0.91886   0.57670   0.66288   1.000
    C228    C    0.40861   0.00723   0.66284   1.000
    C229    C    0.40861   0.50723   0.66284   1.000
    C230    C    0.90858   0.00723   0.66284   1.000
    C231    C    0.90858   0.50723   0.66284   1.000
    C232    C    0.26718   0.35039   0.76244   1.000
    C233    C    0.26718   0.85040   0.76244   1.000
    C234    C    0.76716   0.35040   0.76244   1.000
    C235    C    0.76716   0.85040   0.76244   1.000
    C236    C    0.42486   0.00240   0.73805   1.000
    C237    C    0.42486   0.50240   0.73805   1.000
    C238    C    0.92484   0.00240   0.73805   1.000
    C239    C    0.92484   0.50240   0.73805   1.000
    C240    C    0.05821   0.38128   0.26182   1.000
    C241    C    0.05821   0.88128   0.26182   1.000
    C242    C    0.55819   0.38128   0.26182   1.000
    C243    C    0.55819   0.88128   0.26182   1.000
    C244    C    0.38676   0.21725   0.23714   1.000
    C245    C    0.38676   0.71725   0.23714   1.000
    C246    C    0.88674   0.21725   0.23714   1.000
    C247    C    0.88674   0.71725   0.23714   1.000
    C248    C    0.24529   0.14413   0.16234   1.000
    C249    C    0.24528   0.64414   0.16234   1.000
    C250    C    0.74527   0.14413   0.16234   1.000
    C251    C    0.74527   0.64413   0.16234   1.000
    C252    C    0.33718   0.18451   0.16210   1.000
    C253    C    0.33718   0.68451   0.16210   1.000
    C254    C    0.83716   0.18451   0.16210   1.000
    C255    C    0.83716   0.68451   0.16210   1.000
    C256    C    0.08111   0.42331   0.33708   1.000
    C257    C    0.08111   0.92331   0.33708   1.000
    C258    C    0.58109   0.42331   0.33708   1.000
    C259    C    0.58109   0.92331   0.33708   1.000
    C260    C    0.09139   0.49277   0.33712   1.000
    C261    C    0.09138   0.99277   0.33712   1.000
    C262    C    0.59135   0.49277   0.33712   1.000
    C263    C    0.59135   0.99277   0.33712   1.000
    C264    C    0.23281   0.14960   0.23752   1.000
    C265    C    0.23281   0.64961   0.23752   1.000
    C266    C    0.73279   0.14961   0.23752   1.000
    C267    C    0.73279   0.64961   0.23752   1.000
    C268    C    0.07512   0.49760   0.26191   1.000
    C269    C    0.07512   0.99760   0.26190   1.000
    C270    C    0.57510   0.49760   0.26191   1.000
    C271    C    0.57511   0.99760   0.26190   1.000
    C272    C    0.00551   0.10152   0.15310   1.000
    C273    C    0.00551   0.60152   0.15310   1.000
    C274    C    0.50549   0.10152   0.15312   1.000
    C275    C    0.50549   0.60152   0.15312   1.000
    C276    C    0.07202   0.22326   0.15303   1.000
    C277    C    0.07202   0.72327   0.15300   1.000
    C278    C    0.57200   0.22326   0.15303   1.000
    C279    C    0.57200   0.72327   0.15303   1.000
    C280    C    0.11749   0.27121   0.34768   1.000
    C281    C    0.11749   0.77121   0.34768   1.000
    C282    C    0.61747   0.27121   0.34768   1.000
    C283    C    0.61747   0.77121   0.34768   1.000
    C284    C    0.05763   0.14949   0.34888   1.000
    C285    C    0.05763   0.64950   0.34888   1.000
    C286    C    0.55761   0.14949   0.34888   1.000
    C287    C    0.55761   0.64950   0.34888   1.000
    C288    C    0.49447   0.39848   0.84684   1.000
    C289    C    0.49448   0.89849   0.84684   1.000
    C290    C    0.99445   0.39849   0.84684   1.000
    C291    C    0.99445   0.89849   0.84684   1.000
    C292    C    0.42796   0.27674   0.84694   1.000
    C293    C    0.42796   0.77674   0.84694   1.000
    C294    C    0.92794   0.27674   0.84694   1.000
    C295    C    0.92795   0.77674   0.84694   1.000
    C296    C    0.38249   0.22879   0.65229   1.000
    C297    C    0.38250   0.72879   0.65229   1.000
    C298    C    0.88248   0.22879   0.65229   1.000
    C299    C    0.88248   0.72879   0.65229   1.000
    C300    C    0.44235   0.35051   0.65108   1.000
    C301    C    0.44236   0.85051   0.65108   1.000
    C302    C    0.94233   0.35051   0.65108   1.000
    C303    C    0.94234   0.85051   0.65108   1.000
    O304    O    0.07250   0.44628   0.04900   1.000
    O305    O    0.02669   0.40192   0.98819   1.000
    O306    O    0.08076   0.45554   0.99258   1.000
    O307    O    0.07250   0.94628   0.04900   1.000
    O308    O    0.02670   0.90192   0.98819   1.000
    O309    O    0.08077   0.95554   0.99258   1.000
    O310    O    0.57248   0.44628   0.04900   1.000
    O311    O    0.52669   0.40192   0.98819   1.000
    O312    O    0.58074   0.45554   0.99258   1.000
    O313    O    0.57249   0.94628   0.04900   1.000
    O314    O    0.52670   0.90192   0.98819   1.000
    O315    O    0.58075   0.95555   0.99256   1.000
    O316    O    0.45214   0.82809   0.04915   1.000
    O317    O    0.46703   0.84269   0.98826   1.000
    O318    O    0.41528   0.79122   0.99276   1.000
    O319    O    0.45213   0.32809   0.04915   1.000
    O320    O    0.46702   0.34269   0.98826   1.000
    O321    O    0.41527   0.29122   0.99276   1.000
    O322    O    0.95211   0.32809   0.04915   1.000
    O323    O    0.96700   0.34269   0.98826   1.000
    O324    O    0.91525   0.29122   0.99276   1.000
    O325    O    0.95212   0.82809   0.04915   1.000
    O326    O    0.96701   0.84270   0.98826   1.000
    O327    O    0.91525   0.79122   0.99276   1.000
    O328    O    0.58469   0.70878   0.00720   1.000
    O329    O    0.58469   0.20878   0.00720   1.000
    O330    O    0.08471   0.70878   0.00720   1.000
    O331    O    0.08471   0.20878   0.00720   1.000
    O332    O    0.41922   0.04446   0.00739   1.000
    O333    O    0.41922   0.54446   0.00739   1.000
    O334    O    0.91920   0.04446   0.00737   1.000
    O335    O    0.91920   0.54446   0.00739   1.000
    O336    O    0.51921   0.64331   0.07544   1.000
    O337    O    0.53294   0.65731   0.01171   1.000
    O338    O    0.47327   0.59808   0.01178   1.000
    O339    O    0.51921   0.14331   0.07544   1.000
    O340    O    0.53294   0.15731   0.01171   1.000
    O341    O    0.47327   0.09808   0.01178   1.000
    O342    O    0.01923   0.14331   0.07544   1.000
    O343    O    0.03296   0.15731   0.01171   1.000
    O344    O    0.97327   0.09808   0.01176   1.000
    O345    O    0.01924   0.64331   0.07544   1.000
    O346    O    0.03296   0.65731   0.01171   1.000
    O347    O    0.97327   0.59808   0.01178   1.000
    O348    O    0.61154   0.48264   0.10419   1.000
    O349    O    0.55811   0.43159   0.11002   1.000
    O350    O    0.11157   0.97801   0.10419   1.000
    O351    O    0.05814   0.93159   0.11002   1.000
    O352    O    0.61155   0.97801   0.10459   1.000
    O353    O    0.55812   0.93159   0.11002   1.000
    O354    O    0.11157   0.48263   0.10459   1.000
    O355    O    0.05813   0.43159   0.11002   1.000
    O356    O    0.44134   0.31893   0.10481   1.000
    O357    O    0.49744   0.37263   0.11009   1.000
    O358    O    0.44134   0.81893   0.10481   1.000
    O359    O    0.49744   0.87263   0.11009   1.000
    O360    O    0.94132   0.31893   0.10481   1.000
    O361    O    0.99743   0.37263   0.11009   1.000
    O362    O    0.94132   0.81894   0.10481   1.000
    O363    O    0.99744   0.87263   0.11009   1.000
    O364    O    0.55106   0.18859   0.13585   1.000
    O365    O    0.51781   0.12772   0.13590   1.000
    O366    O    0.55106   0.68859   0.13585   1.000
    O367    O    0.51781   0.62772   0.13590   1.000
    O368    O    0.05108   0.68859   0.13584   1.000
    O369    O    0.01783   0.62772   0.13588   1.000
    O370    O    0.05108   0.18859   0.13585   1.000
    O371    O    0.01783   0.12772   0.13588   1.000
    O372    O    0.04387   0.91760   0.17319   1.000
    O373    O    0.54385   0.41760   0.17318   1.000
    O374    O    0.54385   0.91760   0.17319   1.000
    O375    O    0.04387   0.41760   0.17318   1.000
    O376    O    0.05447   0.74740   0.20145   1.000
    O377    O    0.05448   0.24740   0.20147   1.000
    O378    O    0.55446   0.74740   0.20147   1.000
    O379    O    0.55446   0.24740   0.20147   1.000
    O380    O    0.04712   0.10146   0.20164   1.000
    O381    O    0.04712   0.60146   0.20164   1.000
    O382    O    0.54710   0.60146   0.20165   1.000
    O383    O    0.54710   0.10146   0.20165   1.000
    O384    O    0.79121   0.66432   0.16222   1.000
    O385    O    0.86195   0.70088   0.19962   1.000
    O386    O    0.79121   0.16432   0.16222   1.000
    O387    O    0.86195   0.20088   0.19962   1.000
    O388    O    0.29123   0.66432   0.16222   1.000
    O389    O    0.36197   0.70088   0.19962   1.000
    O390    O    0.29123   0.16432   0.16222   1.000
    O391    O    0.36197   0.20088   0.19962   1.000
    O392    O    0.73903   0.64687   0.19993   1.000
    O393    O    0.73903   0.14687   0.19993   1.000
    O394    O    0.23905   0.64687   0.19993   1.000
    O395    O    0.23905   0.14687   0.19993   1.000
    O396    O    0.05646   0.40466   0.23876   1.000
    O397    O    0.06492   0.46282   0.23880   1.000
    O398    O    0.55644   0.40466   0.23876   1.000
    O399    O    0.56490   0.46282   0.23880   1.000
    O400    O    0.55645   0.90466   0.23877   1.000
    O401    O    0.56491   0.96282   0.23881   1.000
    O402    O    0.05647   0.90466   0.23877   1.000
    O403    O    0.06492   0.96282   0.23881   1.000
    O404    O    0.96183   0.74440   0.24353   1.000
    O405    O    0.85393   0.70619   0.26022   1.000
    O406    O    0.96184   0.24439   0.24353   1.000
    O407    O    0.85393   0.20619   0.26022   1.000
    O408    O    0.46184   0.74440   0.24353   1.000
    O409    O    0.35395   0.70619   0.26022   1.000
    O410    O    0.46184   0.24440   0.24353   1.000
    O411    O    0.35395   0.20619   0.26022   1.000
    O412    O    0.16077   0.12550   0.24385   1.000
    O413    O    0.27698   0.17237   0.26040   1.000
    O414    O    0.16077   0.62551   0.24385   1.000
    O415    O    0.27698   0.67237   0.26040   1.000
    O416    O    0.66075   0.12550   0.24385   1.000
    O417    O    0.77696   0.17237   0.26040   1.000
    O418    O    0.66075   0.62551   0.24385   1.000
    O419    O    0.77696   0.67237   0.26040   1.000
    O420    O    0.04757   0.82641   0.25587   1.000
    O421    O    0.07721   0.77138   0.29879   1.000
    O422    O    0.54755   0.32641   0.25587   1.000
    O423    O    0.57720   0.27138   0.29879   1.000
    O424    O    0.04757   0.32641   0.25587   1.000
    O425    O    0.07721   0.27138   0.29879   1.000
    O426    O    0.54756   0.82641   0.25587   1.000
    O427    O    0.57720   0.77138   0.29879   1.000
    O428    O    0.08193   0.54950   0.25604   1.000
    O429    O    0.07318   0.62545   0.29953   1.000
    O430    O    0.58191   0.04950   0.25604   1.000
    O431    O    0.57316   0.12545   0.29953   1.000
    O432    O    0.58191   0.54950   0.25604   1.000
    O433    O    0.57316   0.62545   0.29953   1.000
    O434    O    0.08193   0.04950   0.25604   1.000
    O435    O    0.07318   0.12545   0.29953   1.000
    O436    O    0.56964   0.90229   0.29945   1.000
    O437    O    0.56964   0.40229   0.29945   1.000
    O438    O    0.06966   0.90229   0.29945   1.000
    O439    O    0.06966   0.40229   0.29945   1.000
    O440    O    0.08325   0.99519   0.29951   1.000
    O441    O    0.58323   0.99519   0.29951   1.000
    O442    O    0.08326   0.49518   0.29951   1.000
    O443    O    0.58323   0.49518   0.29951   1.000
    O444    O    0.83172   0.70602   0.32580   1.000
    O445    O    0.83172   0.20602   0.32580   1.000
    O446    O    0.33174   0.70602   0.32580   1.000
    O447    O    0.33174   0.20601   0.32580   1.000
    O448    O    0.08625   0.45804   0.33710   1.000
    O449    O    0.08625   0.95804   0.33710   1.000
    O450    O    0.58622   0.45804   0.33710   1.000
    O451    O    0.58622   0.95804   0.33710   1.000
    O452    O    0.60668   0.74519   0.36522   1.000
    O453    O    0.60668   0.24518   0.36522   1.000
    O454    O    0.10670   0.74519   0.36522   1.000
    O455    O    0.10670   0.24518   0.36522   1.000
    O456    O    0.57675   0.68433   0.36582   1.000
    O457    O    0.07677   0.18433   0.36582   1.000
    O458    O    0.07677   0.68433   0.36582   1.000
    O459    O    0.57675   0.18432   0.36582   1.000
    O460    O    0.36754   0.25440   0.38841   1.000
    O461    O    0.32740   0.18992   0.38918   1.000
    O462    O    0.36754   0.75440   0.38841   1.000
    O463    O    0.32741   0.68992   0.38918   1.000
    O464    O    0.86752   0.25440   0.38841   1.000
    O465    O    0.82738   0.18992   0.38918   1.000
    O466    O    0.86752   0.75440   0.38841   1.000
    O467    O    0.82738   0.68992   0.38916   1.000
    O468    O    0.90437   0.81299   0.39255   1.000
    O469    O    0.90437   0.31299   0.39255   1.000
    O470    O    0.40439   0.81299   0.39255   1.000
    O471    O    0.40439   0.31299   0.39255   1.000
    O472    O    0.79295   0.13382   0.39472   1.000
    O473    O    0.79296   0.63382   0.39470   1.000
    O474    O    0.29297   0.13382   0.39472   1.000
    O475    O    0.29298   0.63382   0.39472   1.000
    O476    O    0.60647   0.23024   0.42588   1.000
    O477    O    0.10650   0.73024   0.42588   1.000
    O478    O    0.10649   0.23024   0.42597   1.000
    O479    O    0.60647   0.73024   0.42588   1.000
    O480    O    0.40224   0.30230   0.44887   1.000
    O481    O    0.40225   0.80231   0.44887   1.000
    O482    O    0.90222   0.30230   0.44887   1.000
    O483    O    0.90222   0.80231   0.44887   1.000
    O484    O    0.82314   0.67331   0.45040   1.000
    O485    O    0.82313   0.17331   0.45042   1.000
    O486    O    0.32316   0.17331   0.45042   1.000
    O487    O    0.32316   0.67331   0.45042   1.000
    O488    O    0.14161   0.77883   0.48908   1.000
    O489    O    0.10267   0.71431   0.48985   1.000
    O490    O    0.64159   0.27882   0.48908   1.000
    O491    O    0.60264   0.21431   0.48985   1.000
    O492    O    0.64159   0.77882   0.48908   1.000
    O493    O    0.60264   0.71431   0.48985   1.000
    O494    O    0.14161   0.27882   0.48917   1.000
    O495    O    0.10266   0.21431   0.48995   1.000
    O496    O    0.17656   0.83706   0.49264   1.000
    O497    O    0.67653   0.33706   0.49264   1.000
    O498    O    0.67653   0.83706   0.49264   1.000
    O499    O    0.17656   0.33706   0.49264   1.000
    O500    O    0.06972   0.15822   0.49483   1.000
    O501    O    0.56970   0.65822   0.49482   1.000
    O502    O    0.06972   0.65823   0.49482   1.000
    O503    O    0.56969   0.15822   0.49482   1.000
    O504    O    0.93025   0.84178   0.50513   1.000
    O505    O    0.89730   0.78569   0.51001   1.000
    O506    O    0.93025   0.34178   0.50513   1.000
    O507    O    0.89730   0.28569   0.51001   1.000
    O508    O    0.43027   0.84178   0.50513   1.000
    O509    O    0.39733   0.78569   0.51001   1.000
    O510    O    0.43027   0.34178   0.50513   1.000
    O511    O    0.39732   0.28569   0.51001   1.000
    O512    O    0.82341   0.66295   0.50732   1.000
    O513    O    0.85836   0.72118   0.51079   1.000
    O514    O    0.82341   0.16295   0.50732   1.000
    O515    O    0.85835   0.22118   0.51079   1.000
    O516    O    0.32343   0.66295   0.50732   1.000
    O517    O    0.35838   0.72118   0.51079   1.000
    O518    O    0.32343   0.16294   0.50732   1.000
    O519    O    0.35837   0.22118   0.51079   1.000
    O520    O    0.67681   0.32669   0.54954   1.000
    O521    O    0.67681   0.82669   0.54954   1.000
    O522    O    0.17683   0.32669   0.54954   1.000
    O523    O    0.17683   0.82669   0.54954   1.000
    O524    O    0.59772   0.69770   0.55105   1.000
    O525    O    0.59772   0.19770   0.55108   1.000
    O526    O    0.09774   0.69770   0.55108   1.000
    O527    O    0.09774   0.19770   0.55109   1.000
    O528    O    0.89347   0.76976   0.57399   1.000
    O529    O    0.89347   0.26976   0.57399   1.000
    O530    O    0.39349   0.76976   0.57399   1.000
    O531    O    0.39349   0.26976   0.57399   1.000
    O532    O    0.20701   0.36618   0.60524   1.000
    O533    O    0.17258   0.31008   0.61079   1.000
    O534    O    0.20701   0.86619   0.60524   1.000
    O535    O    0.17259   0.81008   0.61079   1.000
    O536    O    0.70699   0.36619   0.60524   1.000
    O537    O    0.67256   0.31008   0.61079   1.000
    O538    O    0.70699   0.86619   0.60524   1.000
    O539    O    0.67256   0.81008   0.61079   1.000
    O540    O    0.59558   0.68701   0.60738   1.000
    O541    O    0.63243   0.74560   0.61152   1.000
    O542    O    0.09559   0.18701   0.60741   1.000
    O543    O    0.13244   0.24560   0.61156   1.000
    O544    O    0.09560   0.68701   0.60741   1.000
    O545    O    0.13245   0.74560   0.61156   1.000
    O546    O    0.59557   0.18701   0.60741   1.000
    O547    O    0.63242   0.24560   0.61156   1.000
    O548    O    0.42322   0.31568   0.63415   1.000
    O549    O    0.39328   0.25482   0.63475   1.000
    O550    O    0.42322   0.81568   0.63415   1.000
    O551    O    0.39329   0.75482   0.63475   1.000
    O552    O    0.92319   0.31568   0.63415   1.000
    O553    O    0.89327   0.25482   0.63475   1.000
    O554    O    0.92320   0.81568   0.63415   1.000
    O555    O    0.89327   0.75482   0.63475   1.000
    O556    O    0.16824   0.29399   0.67417   1.000
    O557    O    0.16825   0.79399   0.67417   1.000
    O558    O    0.66822   0.29399   0.67417   1.000
    O559    O    0.66822   0.79399   0.67417   1.000
    O560    O    0.92679   0.87456   0.70004   1.000
    O561    O    0.42680   0.37455   0.70004   1.000
    O562    O    0.42681   0.87456   0.70044   1.000
    O563    O    0.92678   0.37455   0.70004   1.000
    O564    O    0.42277   0.22862   0.70114   1.000
    O565    O    0.42277   0.72863   0.70114   1.000
    O566    O    0.92275   0.22863   0.70114   1.000
    O567    O    0.92276   0.72863   0.70114   1.000
    O568    O    0.91372   0.04196   0.66282   1.000
    O569    O    0.93030   0.09771   0.70045   1.000
    O570    O    0.41374   0.54197   0.66286   1.000
    O571    O    0.41673   0.50482   0.70044   1.000
    O572    O    0.41374   0.04196   0.66286   1.000
    O573    O    0.41674   0.00482   0.70044   1.000
    O574    O    0.91671   0.00482   0.70044   1.000
    O575    O    0.91372   0.54197   0.66286   1.000
    O576    O    0.91671   0.50482   0.70044   1.000
    O577    O    0.93031   0.59771   0.70051   1.000
    O578    O    0.43033   0.59771   0.70051   1.000
    O579    O    0.43033   0.09771   0.70051   1.000
    O580    O    0.22301   0.82764   0.73956   1.000
    O581    O    0.14604   0.79381   0.73975   1.000
    O582    O    0.72299   0.82764   0.73956   1.000
    O583    O    0.64602   0.79381   0.73975   1.000
    O584    O    0.72299   0.32763   0.73956   1.000
    O585    O    0.64601   0.29381   0.73975   1.000
    O586    O    0.22301   0.32763   0.73956   1.000
    O587    O    0.14603   0.29381   0.73975   1.000
    O588    O    0.91803   0.45050   0.74352   1.000
    O589    O    0.93504   0.53718   0.76116   1.000
    O590    O    0.91804   0.95050   0.74352   1.000
    O591    O    0.93504   0.03718   0.76116   1.000
    O592    O    0.41806   0.45050   0.74352   1.000
    O593    O    0.43506   0.53718   0.76116   1.000
    O594    O    0.41806   0.95050   0.74393   1.000
    O595    O    0.43506   0.03718   0.76116   1.000
    O596    O    0.95239   0.17359   0.74405   1.000
    O597    O    0.94350   0.09534   0.76118   1.000
    O598    O    0.95240   0.67360   0.74407   1.000
    O599    O    0.94350   0.59535   0.76120   1.000
    O600    O    0.45241   0.67359   0.74407   1.000
    O601    O    0.44352   0.59534   0.76120   1.000
    O602    O    0.45241   0.17359   0.74407   1.000
    O603    O    0.44352   0.09534   0.76120   1.000
    O604    O    0.33921   0.37450   0.75572   1.000
    O605    O    0.45286   0.39854   0.79792   1.000
    O606    O    0.83919   0.37450   0.75572   1.000
    O607    O    0.95284   0.39854   0.79792   1.000
    O608    O    0.83920   0.87450   0.75572   1.000
    O609    O    0.95285   0.89854   0.79792   1.000
    O610    O    0.33922   0.87450   0.75612   1.000
    O611    O    0.45287   0.89854   0.79832   1.000
    O612    O    0.53812   0.25561   0.75641   1.000
    O613    O    0.44550   0.25260   0.79847   1.000
    O614    O    0.03813   0.75561   0.75641   1.000
    O615    O    0.94549   0.75260   0.79847   1.000
    O616    O    0.03813   0.25561   0.75641   1.000
    O617    O    0.94549   0.25260   0.79847   1.000
    O618    O    0.53813   0.75561   0.75641   1.000
    O619    O    0.44551   0.75260   0.79847   1.000
    O620    O    0.26094   0.35313   0.80003   1.000
    O621    O    0.26094   0.85313   0.80003   1.000
    O622    O    0.76092   0.35313   0.80003   1.000
    O623    O    0.76092   0.85313   0.80003   1.000
    O624    O    0.13801   0.29912   0.80035   1.000
    O625    O    0.13802   0.79912   0.80035   1.000
    O626    O    0.63800   0.79912   0.80035   1.000
    O627    O    0.63800   0.29912   0.80035   1.000
    O628    O    0.45612   0.08240   0.82678   1.000
    O629    O    0.45612   0.58241   0.82678   1.000
    O630    O    0.95610   0.08240   0.82678   1.000
    O631    O    0.95610   0.58241   0.82678   1.000
    O632    O    0.20876   0.83568   0.83774   1.000
    O633    O    0.20875   0.33568   0.83774   1.000
    O634    O    0.70873   0.33568   0.83774   1.000
    O635    O    0.70874   0.83568   0.83774   1.000
    O636    O    0.48215   0.37228   0.86406   1.000
    O637    O    0.48216   0.87229   0.86406   1.000
    O638    O    0.98213   0.37228   0.86406   1.000
    O639    O    0.98214   0.87229   0.86406   1.000
    O640    O    0.94889   0.81141   0.86412   1.000
    O641    O    0.44891   0.81141   0.86412   1.000
    O642    O    0.94888   0.31141   0.86412   1.000
    O643    O    0.44890   0.31141   0.86412   1.000
    O644    O    0.50253   0.12737   0.88987   1.000
    O645    O    0.44185   0.06841   0.88994   1.000
    O646    O    0.50253   0.62737   0.88987   1.000
    O647    O    0.44185   0.56841   0.88994   1.000
    O648    O    0.00253   0.12737   0.88987   1.000
    O649    O    0.94183   0.06841   0.88994   1.000
    O650    O    0.00253   0.62737   0.88987   1.000
    O651    O    0.94183   0.56842   0.88994   1.000
    O652    O    0.05864   0.18107   0.89516   1.000
    O653    O    0.05865   0.68107   0.89516   1.000
    O654    O    0.55863   0.18107   0.89516   1.000
    O655    O    0.55863   0.68107   0.89516   1.000
    O656    O    0.38842   0.01736   0.89537   1.000
    O657    O    0.38842   0.51737   0.89537   1.000
    O658    O    0.88840   0.01737   0.89537   1.000
    O659    O    0.88840   0.51737   0.89537   1.000
    O660    O    0.48075   0.35669   0.92452   1.000
    O661    O    0.48076   0.85670   0.92452   1.000
    O662    O    0.98073   0.85670   0.92452   1.000
    O663    O    0.98073   0.35669   0.92452   1.000
    O664    O    0.54783   0.67191   0.95082   1.000
    O665    O    0.54783   0.17191   0.95082   1.000
    O666    O    0.04785   0.67191   0.95082   1.000
    O667    O    0.04785   0.17191   0.95082   1.000
    O668    O    0.92746   0.55372   0.95095   1.000
    O669    O    0.92746   0.05372   0.95094   1.000
    O670    O    0.42748   0.55372   0.95095   1.000
    O671    O    0.42748   0.05372   0.95095   1.000
loop_
    _geom_bond_atom_site_label_1
    _geom_bond_atom_site_label_2
    _geom_bond_distance
    _geom_bond_site_symmetry_2
    _ccdc_geom_bond_type
    C156   O304      0.69507      .   S
    C168   O304      0.69507      .   S
    C156   O305      0.70112  1_554   S
    C154   O305      0.70112  1_655   S
    C156   O306      0.54432  1_554   S
    C48    O306      0.54432      .   S
    C157   O307      0.69507      .   S
    C169   O307      0.69507      .   S
    C157   O308      0.70111  1_554   S
    C155   O308      0.70111  1_655   S
    C157   O309      0.54432  1_554   S
    C49    O309      0.54432      .   S
    C158   O310      0.69507      .   S
    C170   O310      0.69507      .   S
    C158   O311      0.70104  1_554   S
    C152   O311      0.70104      .   S
    C158   O312      0.54432  1_554   S
    C50    O312      0.54432      .   S
    C159   O313      0.69507      .   S
    C171   O313      0.69507      .   S
    C159   O314      0.70104  1_554   S
    C153   O314      0.70104      .   S
    C159   O315      0.54445  1_554   S
    C51    O315      0.54445      .   S
    C161   O316      0.69507      .   S
    C165   O316      0.69507      .   S
    C161   O317      0.70128  1_554   S
    C153   O317      0.70128      .   S
    C161   O318      0.54422  1_554   S
    C53    O318      0.54422      .   S
    C160   O319      0.69507      .   S
    C164   O319      0.69507      .   S
    C160   O320      0.70127  1_554   S
    C152   O320      0.70127      .   S
    C160   O321      0.54422  1_554   S
    C52    O321      0.54422      .   S
    C162   O322      0.69507      .   S
    C166   O322      0.69507      .   S
    C162   O323      0.70127  1_554   S
    C154   O323      0.70127      .   S
    C162   O324      0.54422  1_554   S
    C54    O324      0.54422      .   S
    C163   O325      0.69507      .   S
    C167   O325      0.69507      .   S
    C163   O326      0.70127  1_554   S
    C155   O326      0.70127      .   S
    C163   O327      0.54422  1_554   S
    C55    O327      0.54422      .   S
    C23    O328      0.54420      .   S
    C99    O328      0.54420  1_556   S
    C22    O329      0.54420      .   S
    C98    O329      0.54420  1_556   S
    C21    O330      0.54420      .   S
    C97    O330      0.54420  1_556   S
    C20    O331      0.54420      .   S
    C96    O331      0.54420  1_556   S
    C16    O332      0.54432      .   S
    C92    O332      0.54432  1_556   S
    C17    O333      0.54433      .   S
    C93    O333      0.54433  1_556   S
    C18    O334      0.54451      .   S
    C94    O334      0.54451  1_556   S
    C19    O335      0.54433      .   S
    C95    O335      0.54433  1_556   S
    C91    O336      0.74403      .   S
    C87    O336      0.74403      .   S
    C91    O337      0.70128      .   S
    C99    O337      0.70128  1_556   S
    C91    O338      0.70105      .   S
    C93    O338      0.70105  1_556   S
    C90    O339      0.74403      .   S
    C86    O339      0.74403      .   S
    C90    O340      0.70127      .   S
    C98    O340      0.70127  1_556   S
    C90    O341      0.70106      .   S
    C92    O341      0.70106  1_556   S
    C88    O342      0.74403      .   S
    C84    O342      0.74403      .   S
    C88    O343      0.70126      .   S
    C96    O343      0.70126  1_556   S
    C88    O344      0.70121  1_455   S
    C94    O344      0.70121  1_556   S
    C89    O345      0.74403      .   S
    C85    O345      0.74403      .   S
    C89    O346      0.70127      .   S
    C97    O346      0.70127  1_556   S
    C89    O347      0.70114  1_455   S
    C95    O347      0.70114  1_556   S
    C170   O348      0.54288      .   S
    C62    O348      0.54288      .   S
    C170   O349      0.70323      .   S
    C146   O349      0.70323      .   S
    C169   O350      0.49075      .   S
    C61    O350      0.49075  1_545   S
    C169   O351      0.70324      .   S
    C145   O351      0.70324      .   S
    C171   O352      0.49266      .   S
    C63    O352      0.49266  1_545   S
    C171   O353      0.70324      .   S
    C147   O353      0.70324      .   S
    C168   O354      0.54436      .   S
    C60    O354      0.54436      .   S
    C168   O355      0.70324      .   S
    C144   O355      0.70324      .   S
    C164   O356      0.54442      .   S
    C56    O356      0.54442      .   S
    C164   O357      0.70320      .   S
    C146   O357      0.70320      .   S
    C165   O358      0.54443      .   S
    C57    O358      0.54443      .   S
    C165   O359      0.70320      .   S
    C147   O359      0.70320      .   S
    C166   O360      0.54442      .   S
    C58    O360      0.54442      .   S
    C166   O361      0.70328      .   S
    C144   O361      0.70328  1_455   S
    C167   O362      0.54442      .   S
    C59    O362      0.54442      .   S
    C167   O363      0.70328      .   S
    C145   O363      0.70328  1_455   S
    C86    O364      0.63999      .   S
    C278   O364      0.63999      .   S
    C86    O365      0.64018      .   S
    C274   O365      0.64018      .   S
    C87    O366      0.63999      .   S
    C279   O366      0.63999      .   S
    C87    O367      0.64018      .   S
    C275   O367      0.64018      .   S
    C85    O368      0.63994      .   S
    C277   O368      0.63994      .   S
    C85    O369      0.64004      .   S
    C273   O369      0.64004      .   S
    C84    O370      0.63999      .   S
    C276   O370      0.63999      .   S
    C84    O371      0.64005      .   S
    C272   O371      0.64005      .   S
    C145   O372      0.73199      .   S
    C173   O372      0.73199      .   S
    C146   O373      0.73191      .   S
    C174   O373      0.73191      .   S
    C147   O374      0.73199      .   S
    C175   O374      0.73199      .   S
    C144   O375      0.73191      .   S
    C172   O375      0.73191      .   S
    C277   O376      0.98637      .   S
    C1     O376      0.98637      .   S
    C276   O377      0.98616      .   S
    C0     O377      0.98616      .   S
    C279   O378      0.98616      .   S
    C3     O378      0.98616      .   S
    C278   O379      0.98616      .   S
    C2     O379      0.98616      .   S
    C272   O380      0.98666      .   S
    C4     O380      0.98666      .   S
    C273   O381      0.98666      .   S
    C5     O381      0.98666      .   S
    C275   O382      0.98650      .   S
    C7     O382      0.98650      .   S
    C274   O383      0.98650      .   S
    C6     O383      0.98650      .   S
    C255   O384      0.65160      .   S
    C251   O384      0.65160      .   S
    C255   O385      0.68285      .   S
    C247   O385      0.68285      .   S
    C254   O386      0.65159      .   S
    C250   O386      0.65159      .   S
    C254   O387      0.68285      .   S
    C246   O387      0.68285      .   S
    C253   O388      0.65159      .   S
    C249   O388      0.65159      .   S
    C253   O389      0.68285      .   S
    C245   O389      0.68285      .   S
    C252   O390      0.65159      .   S
    C248   O390      0.65159      .   S
    C252   O391      0.68285      .   S
    C244   O391      0.68285      .   S
    C251   O392      0.68288      .   S
    C267   O392      0.68288      .   S
    C250   O393      0.68288      .   S
    C266   O393      0.68288      .   S
    C249   O394      0.68288      .   S
    C265   O394      0.68288      .   S
    C248   O395      0.68288      .   S
    C264   O395      0.68288      .   S
    C172   O396      0.67530      .   S
    C240   O396      0.67530      .   S
    C172   O397      0.67523      .   S
    C268   O397      0.67523      .   S
    C174   O398      0.67529      .   S
    C242   O398      0.67529      .   S
    C174   O399      0.67524      .   S
    C270   O399      0.67524      .   S
    C175   O400      0.67523      .   S
    C243   O400      0.67523      .   S
    C175   O401      0.67516      .   S
    C271   O401      0.67516      .   S
    C173   O402      0.67523      .   S
    C241   O402      0.67523      .   S
    C173   O403      0.67516      .   S
    C269   O403      0.67516      .   S
    C247   O404      1.01295      .   S
    C1     O404      1.01295  1_455   S
    C247   O405      0.67410      .   S
    C183   O405      0.67410      .   S
    C246   O406      1.01294      .   S
    C0     O406      1.01294  1_455   S
    C246   O407      0.67410      .   S
    C182   O407      0.67410      .   S
    C245   O408      1.01274      .   S
    C3     O408      1.01274      .   S
    C245   O409      0.67410      .   S
    C181   O409      0.67410      .   S
    C244   O410      1.01275      .   S
    C2     O410      1.01275      .   S
    C244   O411      0.67410      .   S
    C180   O411      0.67410      .   S
    C264   O412      1.01421      .   S
    C4     O412      1.01421      .   S
    C264   O413      0.67404      .   S
    C180   O413      0.67404      .   S
    C265   O414      1.01421      .   S
    C5     O414      1.01421      .   S
    C265   O415      0.67404      .   S
    C181   O415      0.67404      .   S
    C266   O416      1.01421      .   S
    C6     O416      1.01421      .   S
    C266   O417      0.67404      .   S
    C182   O417      0.67404      .   S
    C267   O418      1.01421      .   S
    C7     O418      1.01421      .   S
    C267   O419      0.67404      .   S
    C183   O419      0.67404      .   S
    C1     O420      1.00488      .   S
    C241   O420      1.00488      .   S
    C1     O421      0.98372      .   S
    C281   O421      0.98372      .   S
    C2     O422      1.00488      .   S
    C242   O422      1.00488      .   S
    C2     O423      0.98371      .   S
    C282   O423      0.98371      .   S
    C0     O424      1.00487      .   S
    C240   O424      1.00487      .   S
    C0     O425      0.98372      .   S
    C280   O425      0.98372      .   S
    C3     O426      1.00489      .   S
    C243   O426      1.00489      .   S
    C3     O427      0.98372      .   S
    C283   O427      0.98372      .   S
    C5     O428      1.00570      .   S
    C268   O428      1.00570      .   S
    C5     O429      0.98597      .   S
    C285   O429      0.98597      .   S
    C6     O430      1.00562      .   S
    C271   O430      1.00562  1_565   S
    C6     O431      0.98597      .   S
    C286   O431      0.98597      .   S
    C7     O432      1.00569      .   S
    C270   O432      1.00569      .   S
    C7     O433      0.98596      .   S
    C287   O433      0.98596      .   S
    C4     O434      1.00563      .   S
    C269   O434      1.00563  1_565   S
    C4     O435      0.98596      .   S
    C284   O435      0.98596      .   S
    C243   O436      0.68395      .   S
    C259   O436      0.68395      .   S
    C242   O437      0.68395      .   S
    C258   O437      0.68395      .   S
    C241   O438      0.68395      .   S
    C257   O438      0.68395      .   S
    C240   O439      0.68395      .   S
    C256   O439      0.68395      .   S
    C269   O440      0.68394      .   S
    C261   O440      0.68394      .   S
    C271   O441      0.68393      .   S
    C263   O441      0.68393      .   S
    C268   O442      0.68385      .   S
    C260   O442      0.68385      .   S
    C270   O443      0.68385      .   S
    C262   O443      0.68385      .   S
    C183   O444      0.73185      .   S
    C207   O444      0.73185      .   S
    C182   O445      0.73185      .   S
    C206   O445      0.73185      .   S
    C181   O446      0.73185      .   S
    C205   O446      0.73185      .   S
    C180   O447      0.73185      .   S
    C204   O447      0.73185      .   S
    C256   O448      0.65193      .   S
    C260   O448      0.65193      .   S
    C257   O449      0.65194      .   S
    C261   O449      0.65194      .   S
    C258   O450      0.65193      .   S
    C262   O450      0.65193      .   S
    C259   O451      0.65194      .   S
    C263   O451      0.65194      .   S
    C283   O452      0.63928      .   S
    C115   O452      0.63928      .   S
    C282   O453      0.63929      .   S
    C114   O453      0.63929      .   S
    C281   O454      0.63928      .   S
    C113   O454      0.63928      .   S
    C280   O455      0.63929      .   S
    C112   O455      0.63929      .   S
    C287   O456      0.63931      .   S
    C115   O456      0.63931      .   S
    C284   O457      0.63931      .   S
    C112   O457      0.63931      .   S
    C285   O458      0.63932      .   S
    C113   O458      0.63932      .   S
    C286   O459      0.63931      .   S
    C114   O459      0.63931      .   S
    C204   O460      0.70291      .   S
    C200   O460      0.70291      .   S
    C204   O461      0.70280      .   S
    C192   O461      0.70280      .   S
    C205   O462      0.70291      .   S
    C201   O462      0.70291      .   S
    C205   O463      0.70279      .   S
    C193   O463      0.70279      .   S
    C206   O464      0.70291      .   S
    C202   O464      0.70291      .   S
    C206   O465      0.70280      .   S
    C194   O465      0.70280      .   S
    C207   O466      0.70291      .   S
    C203   O466      0.70291      .   S
    C207   O467      0.70254      .   S
    C195   O467      0.70254      .   S
    C79    O468      0.54456      .   S
    C203   O468      0.54456      .   S
    C78    O469      0.54457      .   S
    C202   O469      0.54457      .   S
    C77    O470      0.54457      .   S
    C201   O470      0.54457      .   S
    C76    O471      0.54457      .   S
    C200   O471      0.54457      .   S
    C74    O472      0.54461      .   S
    C194   O472      0.54461      .   S
    C75    O473      0.54453      .   S
    C195   O473      0.54453      .   S
    C72    O474      0.54461      .   S
    C192   O474      0.54461      .   S
    C73    O475      0.54461      .   S
    C193   O475      0.54461      .   S
    C114   O476      0.74228      .   S
    C134   O476      0.74228      .   S
    C113   O477      0.74228      .   S
    C133   O477      0.74228      .   S
    C112   O478      0.74391      .   S
    C132   O478      0.74391      .   S
    C115   O479      0.74228      .   S
    C135   O479      0.74228      .   S
    C200   O480      0.69508      .   S
    C188   O480      0.69508      .   S
    C201   O481      0.69508      .   S
    C189   O481      0.69508      .   S
    C202   O482      0.69508      .   S
    C190   O482      0.69508      .   S
    C203   O483      0.69508      .   S
    C191   O483      0.69508      .   S
    C195   O484      0.69548      .   S
    C187   O484      0.69548      .   S
    C194   O485      0.69514      .   S
    C186   O485      0.69514      .   S
    C192   O486      0.69514      .   S
    C184   O486      0.69514      .   S
    C193   O487      0.69514      .   S
    C185   O487      0.69514      .   S
    C133   O488      0.70149      .   S
    C121   O488      0.70149      .   S
    C133   O489      0.70210      .   S
    C125   O489      0.70210      .   S
    C134   O490      0.70149      .   S
    C122   O490      0.70149      .   S
    C134   O491      0.70211      .   S
    C126   O491      0.70211      .   S
    C135   O492      0.70149      .   S
    C123   O492      0.70149      .   S
    C135   O493      0.70210      .   S
    C127   O493      0.70210      .   S
    C132   O494      0.70109      .   S
    C120   O494      0.70109      .   S
    C132   O495      0.70100      .   S
    C124   O495      0.70100      .   S
    C33    O496      0.54427      .   S
    C121   O496      0.54427      .   S
    C34    O497      0.54426      .   S
    C122   O497      0.54426      .   S
    C35    O498      0.54428      .   S
    C123   O498      0.54428      .   S
    C32    O499      0.54427      .   S
    C120   O499      0.54427      .   S
    C36    O500      0.54429      .   S
    C124   O500      0.54429      .   S
    C39    O501      0.54424      .   S
    C127   O501      0.54424      .   S
    C37    O502      0.54424      .   S
    C125   O502      0.54424      .   S
    C38    O503      0.54424      .   S
    C126   O503      0.54424      .   S
    C191   O504      0.54429      .   S
    C71    O504      0.54429      .   S
    C191   O505      0.70100      .   S
    C199   O505      0.70100      .   S
    C190   O506      0.54429      .   S
    C70    O506      0.54429      .   S
    C190   O507      0.70100      .   S
    C198   O507      0.70100      .   S
    C189   O508      0.54429      .   S
    C69    O508      0.54429      .   S
    C189   O509      0.70100      .   S
    C197   O509      0.70100      .   S
    C188   O510      0.54429      .   S
    C68    O510      0.54429      .   S
    C188   O511      0.70100      .   S
    C196   O511      0.70100      .   S
    C187   O512      0.54434      .   S
    C67    O512      0.54434      .   S
    C187   O513      0.70109      .   S
    C199   O513      0.70109      .   S
    C186   O514      0.54434      .   S
    C66    O514      0.54434      .   S
    C186   O515      0.70109      .   S
    C198   O515      0.70109      .   S
    C185   O516      0.54434      .   S
    C65    O516      0.54434      .   S
    C185   O517      0.70109      .   S
    C197   O517      0.70109      .   S
    C184   O518      0.54434      .   S
    C64    O518      0.54434      .   S
    C184   O519      0.70109      .   S
    C196   O519      0.70109      .   S
    C122   O520      0.69514      .   S
    C130   O520      0.69514      .   S
    C123   O521      0.69514      .   S
    C131   O521      0.69514      .   S
    C120   O522      0.69514      .   S
    C128   O522      0.69514      .   S
    C121   O523      0.69514      .   S
    C129   O523      0.69514      .   S
    C127   O524      0.69465      .   S
    C139   O524      0.69465      .   S
    C126   O525      0.69525      .   S
    C138   O525      0.69525      .   S
    C125   O526      0.69525      .   S
    C137   O526      0.69525      .   S
    C124   O527      0.69508      .   S
    C136   O527      0.69508      .   S
    C199   O528      0.74399      .   S
    C179   O528      0.74399      .   S
    C198   O529      0.74399      .   S
    C178   O529      0.74399      .   S
    C197   O530      0.74399      .   S
    C177   O530      0.74399      .   S
    C196   O531      0.74399      .   S
    C176   O531      0.74399      .   S
    C128   O532      0.54460      .   S
    C40    O532      0.54460      .   S
    C128   O533      0.70287      .   S
    C140   O533      0.70287      .   S
    C129   O534      0.54461      .   S
    C41    O534      0.54461      .   S
    C129   O535      0.70286      .   S
    C141   O535      0.70286      .   S
    C130   O536      0.54461      .   S
    C42    O536      0.54461      .   S
    C130   O537      0.70286      .   S
    C142   O537      0.70286      .   S
    C131   O538      0.54460      .   S
    C43    O538      0.54460      .   S
    C131   O539      0.70286      .   S
    C143   O539      0.70286      .   S
    C139   O540      0.54502      .   S
    C47    O540      0.54502      .   S
    C139   O541      0.70308      .   S
    C143   O541      0.70308      .   S
    C136   O542      0.54457      .   S
    C44    O542      0.54457      .   S
    C136   O543      0.70293      .   S
    C140   O543      0.70293      .   S
    C137   O544      0.54457      .   S
    C45    O544      0.54457      .   S
    C137   O545      0.70294      .   S
    C141   O545      0.70294      .   S
    C138   O546      0.54457      .   S
    C46    O546      0.54457      .   S
    C138   O547      0.70294      .   S
    C142   O547      0.70294      .   S
    C176   O548      0.63930      .   S
    C300   O548      0.63930      .   S
    C176   O549      0.63929      .   S
    C296   O549      0.63929      .   S
    C177   O550      0.63929      .   S
    C301   O550      0.63929      .   S
    C177   O551      0.63929      .   S
    C297   O551      0.63929      .   S
    C178   O552      0.63930      .   S
    C302   O552      0.63930      .   S
    C178   O553      0.63929      .   S
    C298   O553      0.63929      .   S
    C179   O554      0.63930      .   S
    C303   O554      0.63930      .   S
    C179   O555      0.63929      .   S
    C299   O555      0.63929      .   S
    C140   O556      0.73185      .   S
    C116   O556      0.73185      .   S
    C141   O557      0.73185      .   S
    C117   O557      0.73185      .   S
    C142   O558      0.73185      .   S
    C118   O558      0.73185      .   S
    C143   O559      0.73185      .   S
    C119   O559      0.73185      .   S
    C303   O560      0.98013      .   S
    C15    O560      0.98013      .   S
    C300   O561      0.98013      .   S
    C12    O561      0.98013      .   S
    C301   O562      0.98604      .   S
    C13    O562      0.98604      .   S
    C302   O563      0.98013      .   S
    C14    O563      0.98013      .   S
    C296   O564      0.98327      .   S
    C8     O564      0.98327      .   S
    C297   O565      0.98326      .   S
    C9     O565      0.98326      .   S
    C298   O566      0.98327      .   S
    C10    O566      0.98327      .   S
    C299   O567      0.98327      .   S
    C11    O567      0.98327      .   S
    C226   O568      0.65210      .   S
    C230   O568      0.65210      .   S
    C226   O569      0.68425      .   S
    C210   O569      0.68425      .   S
    C229   O570      0.65193      .   S
    C225   O570      0.65193      .   S
    C229   O571      0.68385      .   S
    C237   O571      0.68385      .   S
    C228   O572      0.65193      .   S
    C224   O572      0.65193      .   S
    C228   O573      0.68384      .   S
    C236   O573      0.68384      .   S
    C230   O574      0.68384      .   S
    C238   O574      0.68384      .   S
    C231   O575      0.65192      .   S
    C227   O575      0.65192      .   S
    C231   O576      0.68385      .   S
    C239   O576      0.68385      .   S
    C227   O577      0.68395      .   S
    C211   O577      0.68395      .   S
    C225   O578      0.68395      .   S
    C209   O578      0.68395      .   S
    C224   O579      0.68395      .   S
    C208   O579      0.68395      .   S
    C117   O580      0.67401      .   S
    C233   O580      0.67401      .   S
    C117   O581      0.67410      .   S
    C213   O581      0.67410      .   S
    C119   O582      0.67401      .   S
    C235   O582      0.67401      .   S
    C119   O583      0.67410      .   S
    C215   O583      0.67410      .   S
    C118   O584      0.67401      .   S
    C234   O584      0.67401      .   S
    C118   O585      0.67410      .   S
    C214   O585      0.67410      .   S
    C116   O586      0.67401      .   S
    C232   O586      0.67401      .   S
    C116   O587      0.67410      .   S
    C212   O587      0.67410      .   S
    C239   O588      1.00341      .   S
    C14    O588      1.00341      .   S
    C239   O589      0.67523      .   S
    C111   O589      0.67523      .   S
    C238   O590      1.00338  1_545   S
    C15    O590      1.00338      .   S
    C238   O591      0.67523      .   S
    C110   O591      0.67523      .   S
    C237   O592      1.00341      .   S
    C12    O592      1.00341      .   S
    C237   O593      0.67523      .   S
    C109   O593      0.67523      .   S
    C236   O594      1.00568  1_545   S
    C13    O594      1.00568      .   S
    C236   O595      0.67523      .   S
    C108   O595      0.67523      .   S
    C210   O596      1.00489      .   S
    C10    O596      1.00489      .   S
    C210   O597      0.67557      .   S
    C110   O597      0.67557      .   S
    C211   O598      1.00494      .   S
    C11    O598      1.00494      .   S
    C211   O599      0.67530      .   S
    C111   O599      0.67530      .   S
    C209   O600      1.00494      .   S
    C9     O600      1.00494      .   S
    C209   O601      0.67530      .   S
    C109   O601      0.67530      .   S
    C208   O602      1.00494      .   S
    C8     O602      1.00494      .   S
    C208   O603      0.67529      .   S
    C108   O603      0.67529      .   S
    C12    O604      1.01655      .   S
    C232   O604      1.01655      .   S
    C12    O605      0.99227      .   S
    C288   O605      0.99227      .   S
    C14    O606      1.01654      .   S
    C234   O606      1.01654      .   S
    C14    O607      0.99227      .   S
    C290   O607      0.99227      .   S
    C15    O608      1.01655      .   S
    C235   O608      1.01655      .   S
    C15    O609      0.99227      .   S
    C291   O609      0.99227      .   S
    C13    O610      1.01418      .   S
    C233   O610      1.01418      .   S
    C13    O611      0.98643      .   S
    C289   O611      0.98643      .   S
    C8     O612      1.01268      .   S
    C214   O612      1.01268      .   S
    C8     O613      0.98660      .   S
    C292   O613      0.98660      .   S
    C11    O614      1.01288  1_655   S
    C213   O614      1.01288      .   S
    C11    O615      0.98659      .   S
    C295   O615      0.98659      .   S
    C10    O616      1.01287  1_655   S
    C212   O616      1.01287      .   S
    C10    O617      0.98660      .   S
    C294   O617      0.98660      .   S
    C9     O618      1.01269      .   S
    C215   O618      1.01269      .   S
    C9     O619      0.98660      .   S
    C293   O619      0.98660      .   S
    C232   O620      0.68288      .   S
    C216   O620      0.68288      .   S
    C233   O621      0.68288      .   S
    C217   O621      0.68288      .   S
    C234   O622      0.68288      .   S
    C218   O622      0.68288      .   S
    C235   O623      0.68288      .   S
    C219   O623      0.68288      .   S
    C212   O624      0.68285      .   S
    C220   O624      0.68285      .   S
    C213   O625      0.68285      .   S
    C221   O625      0.68285      .   S
    C215   O626      0.68285      .   S
    C223   O626      0.68285      .   S
    C214   O627      0.68285      .   S
    C222   O627      0.68285      .   S
    C108   O628      0.73191      .   S
    C80    O628      0.73191      .   S
    C109   O629      0.73191      .   S
    C81    O629      0.73191      .   S
    C110   O630      0.73191      .   S
    C82    O630      0.73191      .   S
    C111   O631      0.73191      .   S
    C83    O631      0.73191      .   S
    C217   O632      0.65162      .   S
    C221   O632      0.65162      .   S
    C216   O633      0.65161      .   S
    C220   O633      0.65161      .   S
    C218   O634      0.65161      .   S
    C222   O634      0.65161      .   S
    C219   O635      0.65161      .   S
    C223   O635      0.65161      .   S
    C288   O636      0.64018      .   S
    C148   O636      0.64018      .   S
    C289   O637      0.64017      .   S
    C149   O637      0.64017      .   S
    C290   O638      0.64018      .   S
    C150   O638      0.64018      .   S
    C291   O639      0.64017      .   S
    C151   O639      0.64017      .   S
    C295   O640      0.63997      .   S
    C151   O640      0.63997      .   S
    C293   O641      0.63997      .   S
    C149   O641      0.63997      .   S
    C294   O642      0.63997      .   S
    C150   O642      0.63997      .   S
    C292   O643      0.63997      .   S
    C148   O643      0.63997      .   S
    C80    O644      0.70319      .   S
    C102   O644      0.70319      .   S
    C80    O645      0.70324      .   S
    C104   O645      0.70324      .   S
    C81    O646      0.70320      .   S
    C103   O646      0.70320      .   S
    C81    O647      0.70324      .   S
    C105   O647      0.70324      .   S
    C82    O648      0.70328  1_655   S
    C100   O648      0.70328      .   S
    C82    O649      0.70323      .   S
    C106   O649      0.70323      .   S
    C83    O650      0.70328  1_655   S
    C101   O650      0.70328      .   S
    C83    O651      0.70324      .   S
    C107   O651      0.70324      .   S
    C24    O652      0.54436      .   S
    C100   O652      0.54436      .   S
    C25    O653      0.54436      .   S
    C101   O653      0.54436      .   S
    C26    O654      0.54436      .   S
    C102   O654      0.54436      .   S
    C27    O655      0.54436      .   S
    C103   O655      0.54436      .   S
    C28    O656      0.54436  1_565   S
    C104   O656      0.54436      .   S
    C29    O657      0.54436      .   S
    C105   O657      0.54436      .   S
    C30    O658      0.54436  1_565   S
    C106   O658      0.54436      .   S
    C31    O659      0.54436      .   S
    C107   O659      0.54436      .   S
    C148   O660      0.74412      .   S
    C152   O660      0.74412      .   S
    C149   O661      0.74412      .   S
    C153   O661      0.74412      .   S
    C151   O662      0.74412      .   S
    C155   O662      0.74412      .   S
    C150   O663      0.74412      .   S
    C154   O663      0.74412      .   S
    C103   O664      0.69515      .   S
    C99    O664      0.69515      .   S
    C102   O665      0.69515      .   S
    C98    O665      0.69515      .   S
    C101   O666      0.69515      .   S
    C97    O666      0.69515      .   S
    C100   O667      0.69515      .   S
    C96    O667      0.69515      .   S
    C107   O668      0.69507      .   S
    C95    O668      0.69507      .   S
    C106   O669      0.69482      .   S
    C94    O669      0.69482      .   S
    C105   O670      0.69507      .   S
    C93    O670      0.69507      .   S
    C104   O671      0.69507      .   S
    C92    O671      0.69507      .   S
