# CIF file generated by openbabel 2.4.90, see http://openbabel.sf.net
data_I
_chemical_name_common ''
_cell_length_a 20.752
_cell_length_b 20.667
_cell_length_c 14.043
_cell_angle_alpha 89.845
_cell_angle_beta 89.931
_cell_angle_gamma 89.747
_space_group_name_H-M_alt 'P 1'
_space_group_name_Hall 'P 1'
loop_
    _symmetry_equiv_pos_as_xyz
    x,y,z
loop_
    _atom_site_label
    _atom_site_type_symbol
    _atom_site_fract_x
    _atom_site_fract_y
    _atom_site_fract_z
    _atom_site_occupancy
    Y0      Y    0.43775   0.56226   0.62802   1.000
    Y1      Y    0.93775   0.06227   0.62802   1.000
    Y2      Y    0.93775   0.56226   0.62802   1.000
    Y3      Y    0.06324   0.43769   0.12761   1.000
    Y4      Y    0.06324   0.93768   0.12761   1.000
    Y5      Y    0.56323   0.43769   0.12761   1.000
    Y6      Y    0.56323   0.93768   0.12761   1.000
    Y7      Y    0.43814   0.43919   0.87314   1.000
    Y8      Y    0.43814   0.93919   0.87314   1.000
    Y9      Y    0.93813   0.43919   0.87314   1.000
    Y10     Y    0.93813   0.93919   0.87314   1.000
    Y11     Y    0.06230   0.06280   0.37457   1.000
    Y12     Y    0.06230   0.56279   0.37457   1.000
    Y13     Y    0.56229   0.06280   0.37457   1.000
    Y14     Y    0.56229   0.56279   0.37457   1.000
    Y15     Y    0.43776   0.06227   0.62802   1.000
