# CIF file generated by openbabel 2.4.90, see http://openbabel.sf.net
data_I
_chemical_name_common ''
_cell_length_a 20.752
_cell_length_b 20.667
_cell_length_c 14.043
_cell_angle_alpha 89.845
_cell_angle_beta 89.931
_cell_angle_gamma 89.747
_space_group_name_H-M_alt 'P 1'
_space_group_name_Hall 'P 1'
loop_
    _symmetry_equiv_pos_as_xyz
    x,y,z
loop_
    _atom_site_label
    _atom_site_type_symbol
    _atom_site_fract_x
    _atom_site_fract_y
    _atom_site_fract_z
    _atom_site_occupancy
    C0      C    0.43776   0.06227   0.62802   1.000
    C1      C    0.43775   0.56226   0.62802   1.000
    C2      C    0.93775   0.06227   0.62802   1.000
    C3      C    0.93775   0.56226   0.62802   1.000
    C4      C    0.06324   0.43769   0.12761   1.000
    C5      C    0.06324   0.93768   0.12761   1.000
    C6      C    0.56323   0.43769   0.12761   1.000
    C7      C    0.56323   0.93768   0.12761   1.000
    C8      C    0.43814   0.43919   0.87314   1.000
    C9      C    0.43814   0.93919   0.87314   1.000
    C10     C    0.93813   0.43919   0.87314   1.000
    C11     C    0.93813   0.93919   0.87314   1.000
    C12     C    0.06230   0.06280   0.37457   1.000
    C13     C    0.06230   0.56279   0.37457   1.000
    C14     C    0.56229   0.06280   0.37457   1.000
    C15     C    0.56229   0.56279   0.37457   1.000
    C16     C    0.26501   0.03529   0.39583   1.000
    C17     C    0.26501   0.53528   0.39583   1.000
    C18     C    0.76501   0.03529   0.39583   1.000
    C19     C    0.76501   0.53528   0.39583   1.000
    C20     C    0.23478   0.46573   0.89530   1.000
    C21     C    0.23478   0.96572   0.89530   1.000
    C22     C    0.73477   0.46573   0.89530   1.000
    C23     C    0.73477   0.96572   0.89530   1.000
    C24     C    0.46161   0.26393   0.64453   1.000
    C25     C    0.46161   0.76392   0.64453   1.000
    C26     C    0.96161   0.26393   0.64453   1.000
    C27     C    0.96160   0.76392   0.64453   1.000
    C28     C    0.03714   0.23593   0.14336   1.000
    C29     C    0.03714   0.73592   0.14336   1.000
    C30     C    0.53714   0.23593   0.14336   1.000
    C31     C    0.53714   0.73592   0.14336   1.000
    C32     C    0.23477   0.03837   0.60716   1.000
    C33     C    0.23477   0.53836   0.60716   1.000
    C34     C    0.73477   0.03837   0.60716   1.000
    C35     C    0.73476   0.53836   0.60716   1.000
    C36     C    0.26585   0.46510   0.10690   1.000
    C37     C    0.26585   0.96509   0.10690   1.000
    C38     C    0.76584   0.46510   0.10690   1.000
    C39     C    0.76584   0.96509   0.10690   1.000
    C40     C    0.03518   0.26498   0.35737   1.000
    C41     C    0.03518   0.76497   0.35737   1.000
    C42     C    0.53518   0.26498   0.35737   1.000
    C43     C    0.53517   0.76497   0.35737   1.000
    C44     C    0.46473   0.23744   0.85576   1.000
    C45     C    0.46473   0.73743   0.85576   1.000
    C46     C    0.96472   0.23744   0.85576   1.000
    C47     C    0.96472   0.73743   0.85576   1.000
    C48     C    0.44477   0.00042   0.25161   1.000
    C49     C    0.44477   0.50041   0.25161   1.000
    C50     C    0.94476   0.00042   0.25161   1.000
    C51     C    0.94476   0.50041   0.25161   1.000
    C52     C    0.05544   0.00019   0.75010   1.000
    C53     C    0.05544   0.50018   0.75010   1.000
    C54     C    0.55543   0.00019   0.75016   1.000
    C55     C    0.55543   0.50018   0.75010   1.000
    C56     C    0.00070   0.44473   0.50317   1.000
    C57     C    0.00070   0.94473   0.50317   1.000
    C58     C    0.50070   0.44473   0.50317   1.000
    C59     C    0.50069   0.94473   0.50317   1.000
    C60     C    0.00146   0.05642   0.99850   1.000
    C61     C    0.00000   0.55641   0.99852   1.000
    C62     C    0.50145   0.05642   0.99851   1.000
    C63     C    0.50145   0.55641   0.99851   1.000
    C64     C    0.29176   0.02000   0.33296   1.000
    C65     C    0.29176   0.51999   0.33296   1.000
    C66     C    0.79175   0.02000   0.33296   1.000
    C67     C    0.79175   0.51999   0.33296   1.000
    C68     C    0.35923   0.01954   0.33320   1.000
    C69     C    0.35923   0.51953   0.33320   1.000
    C70     C    0.85922   0.01954   0.33328   1.000
    C71     C    0.85922   0.51953   0.33320   1.000
    C72     C    0.39738   0.03749   0.41899   1.000
    C73     C    0.39737   0.53748   0.41899   1.000
    C74     C    0.89737   0.03749   0.41899   1.000
    C75     C    0.89737   0.53748   0.41899   1.000
    C76     C    0.20825   0.48136   0.83239   1.000
    C77     C    0.20825   0.98135   0.83200   1.000
    C78     C    0.70824   0.48136   0.83239   1.000
    C79     C    0.70824   0.98135   0.83200   1.000
    C80     C    0.14080   0.48139   0.83234   1.000
    C81     C    0.14080   0.98138   0.83234   1.000
    C82     C    0.64080   0.48139   0.83234   1.000
    C83     C    0.64079   0.98138   0.83234   1.000
    C84     C    0.10285   0.46277   0.91810   1.000
    C85     C    0.10285   0.96276   0.91810   1.000
    C86     C    0.60285   0.46277   0.91816   1.000
    C87     C    0.60285   0.96276   0.91810   1.000
    C88     C    0.47788   0.29071   0.58214   1.000
    C89     C    0.47788   0.79070   0.58214   1.000
    C90     C    0.97788   0.29071   0.58214   1.000
    C91     C    0.97787   0.79070   0.58214   1.000
    C92     C    0.47945   0.35849   0.58344   1.000
    C93     C    0.47944   0.85848   0.58344   1.000
    C94     C    0.97944   0.35849   0.58344   1.000
    C95     C    0.97944   0.85848   0.58344   1.000
    C96     C    0.46152   0.39499   0.67092   1.000
    C97     C    0.46151   0.89499   0.67092   1.000
    C98     C    0.96151   0.39499   0.67092   1.000
    C99     C    0.96151   0.89498   0.67092   1.000
    C100    C    0.02137   0.20971   0.08045   1.000
    C101    C    0.02137   0.70971   0.08045   1.000
    C102    C    0.52136   0.20971   0.08045   1.000
    C103    C    0.52136   0.70971   0.08045   1.000
    C104    C    0.02077   0.14196   0.08051   1.000
    C105    C    0.02076   0.64196   0.08051   1.000
    C106    C    0.52076   0.14196   0.08051   1.000
    C107    C    0.52076   0.64196   0.08051   1.000
    C108    C    0.03905   0.10426   0.16696   1.000
    C109    C    0.03904   0.60425   0.16690   1.000
    C110    C    0.53904   0.10426   0.16696   1.000
    C111    C    0.53904   0.60426   0.16696   1.000
    C112    C    0.20827   0.02230   0.66983   1.000
    C113    C    0.20827   0.52229   0.66983   1.000
    C114    C    0.70826   0.02230   0.66983   1.000
    C115    C    0.70826   0.52229   0.66983   1.000
    C116    C    0.14080   0.02097   0.66918   1.000
    C117    C    0.14080   0.52096   0.66918   1.000
    C118    C    0.64080   0.02097   0.66918   1.000
    C119    C    0.64079   0.52096   0.66918   1.000
    C120    C    0.10286   0.03890   0.58303   1.000
    C121    C    0.10286   0.53889   0.58303   1.000
    C122    C    0.60286   0.03890   0.58303   1.000
    C123    C    0.60286   0.53889   0.58303   1.000
    C124    C    0.29221   0.48048   0.16986   1.000
    C125    C    0.29221   0.98047   0.16986   1.000
    C126    C    0.79221   0.48048   0.16986   1.000
    C127    C    0.79221   0.98047   0.16986   1.000
    C128    C    0.35968   0.48123   0.16972   1.000
    C129    C    0.35968   0.98122   0.16972   1.000
    C130    C    0.85968   0.48123   0.16972   1.000
    C131    C    0.85968   0.98122   0.16972   1.000
    C132    C    0.39851   0.46344   0.08427   1.000
    C133    C    0.39851   0.96343   0.08427   1.000
    C134    C    0.89850   0.46344   0.08427   1.000
    C135    C    0.89850   0.96343   0.08427   1.000
    C136    C    0.01930   0.29130   0.42031   1.000
    C137    C    0.01930   0.79130   0.42031   1.000
    C138    C    0.51929   0.29130   0.42031   1.000
    C139    C    0.51929   0.79130   0.42031   1.000
    C140    C    0.01930   0.35905   0.42060   1.000
    C141    C    0.01930   0.85905   0.42060   1.000
    C142    C    0.51930   0.35905   0.42060   1.000
    C143    C    0.51930   0.85905   0.42060   1.000
    C144    C    0.03850   0.39632   0.33419   1.000
    C145    C    0.03850   0.89631   0.33419   1.000
    C146    C    0.53850   0.39632   0.33419   1.000
    C147    C    0.53849   0.89631   0.33419   1.000
    C148    C    0.48063   0.21055   0.91833   1.000
    C149    C    0.48063   0.71054   0.91833   1.000
    C150    C    0.98062   0.21055   0.91833   1.000
    C151    C    0.98062   0.71054   0.91833   1.000
    C152    C    0.48159   0.14276   0.91750   1.000
    C153    C    0.48159   0.64275   0.91750   1.000
    C154    C    0.98158   0.14276   0.91750   1.000
    C155    C    0.98157   0.64275   0.91750   1.000
    C156    C    0.46335   0.10596   0.83067   1.000
    C157    C    0.46335   0.60595   0.83067   1.000
    C158    C    0.96335   0.10596   0.83067   1.000
    C159    C    0.96334   0.60595   0.83067   1.000
    C160    C    0.25847   0.00014   0.25140   1.000
    C161    C    0.25847   0.50013   0.25140   1.000
    C162    C    0.75846   0.00014   0.25140   1.000
    C163    C    0.75846   0.50013   0.25140   1.000
    C164    C    0.18629   0.00002   0.25155   1.000
    C165    C    0.18629   0.50001   0.25155   1.000
    C166    C    0.68628   0.00002   0.25155   1.000
    C167    C    0.68628   0.50001   0.25155   1.000
    C168    C    0.39248   0.00041   0.25156   1.000
    C169    C    0.39248   0.50040   0.25156   1.000
    C170    C    0.89248   0.00041   0.25156   1.000
    C171    C    0.89248   0.50040   0.25156   1.000
    C172    C    0.24176   0.00210   0.75128   1.000
    C173    C    0.24175   0.50209   0.75128   1.000
    C174    C    0.74175   0.00210   0.75128   1.000
    C175    C    0.74175   0.50209   0.75128   1.000
    C176    C    0.31386   0.00236   0.75170   1.000
    C177    C    0.31386   0.50236   0.75174   1.000
    C178    C    0.81386   0.00236   0.75174   1.000
    C179    C    0.81385   0.50236   0.75170   1.000
    C180    C    0.10772   0.00080   0.75054   1.000
    C181    C    0.10772   0.50080   0.75050   1.000
    C182    C    0.60771   0.00080   0.75054   1.000
    C183    C    0.60771   0.50080   0.75054   1.000
    C184    C    0.99830   0.25732   0.50085   1.000
    C185    C    0.99830   0.75731   0.50080   1.000
    C186    C    0.49829   0.25732   0.50086   1.000
    C187    C    0.49829   0.75732   0.50085   1.000
    C188    C    0.99840   0.18487   0.50012   1.000
    C189    C    0.99840   0.68486   0.50012   1.000
    C190    C    0.49840   0.18487   0.50012   1.000
    C191    C    0.49839   0.68486   0.50012   1.000
    C192    C    0.99982   0.39219   0.50247   1.000
    C193    C    0.99982   0.89219   0.50240   1.000
    C194    C    0.49981   0.39219   0.50247   1.000
    C195    C    0.49981   0.89219   0.50247   1.000
    C196    C    0.00093   0.24382   0.99960   1.000
    C197    C    0.00092   0.74381   0.99960   1.000
    C198    C    0.50092   0.24382   0.99960   1.000
    C199    C    0.50092   0.74381   0.99960   1.000
    C200    C    0.00076   0.31629   0.00021   1.000
    C201    C    0.00076   0.81628   0.00021   1.000
    C202    C    0.50075   0.31629   0.00021   1.000
    C203    C    0.50075   0.81628   0.00021   1.000
    C204    C    0.00125   0.10897   0.99880   1.000
    C205    C    0.00125   0.60896   0.99881   1.000
    C206    C    0.50125   0.10897   0.99881   1.000
    C207    C    0.50125   0.60896   0.99881   1.000
    C208    C    0.36993   0.04101   0.49900   1.000
    C209    C    0.36993   0.54100   0.49900   1.000
    C210    C    0.86993   0.04101   0.49900   1.000
    C211    C    0.86993   0.54100   0.49900   1.000
    C212    C    0.15807   0.04182   0.30360   1.000
    C213    C    0.15807   0.54181   0.30360   1.000
    C214    C    0.65806   0.04182   0.30360   1.000
    C215    C    0.65806   0.54181   0.30360   1.000
    C216    C    0.45788   0.04716   0.40861   1.000
    C217    C    0.45788   0.54715   0.40861   1.000
    C218    C    0.95787   0.04716   0.40861   1.000
    C219    C    0.95787   0.54715   0.40861   1.000
    C220    C    0.13059   0.45850   0.99863   1.000
    C221    C    0.13059   0.95850   0.99863   1.000
    C222    C    0.63058   0.45850   0.99863   1.000
    C223    C    0.63058   0.95849   0.99863   1.000
    C224    C    0.34197   0.46056   0.80410   1.000
    C225    C    0.34197   0.96056   0.80413   1.000
    C226    C    0.84196   0.46056   0.80410   1.000
    C227    C    0.84196   0.96056   0.80410   1.000
    C228    C    0.04225   0.45338   0.90847   1.000
    C229    C    0.04225   0.95337   0.90847   1.000
    C230    C    0.54225   0.45338   0.90847   1.000
    C231    C    0.54225   0.95337   0.90847   1.000
    C232    C    0.45530   0.36509   0.74960   1.000
    C233    C    0.45530   0.86508   0.74960   1.000
    C234    C    0.95529   0.36509   0.74960   1.000
    C235    C    0.95529   0.86508   0.74960   1.000
    C236    C    0.45602   0.15630   0.55036   1.000
    C237    C    0.45602   0.65629   0.55036   1.000
    C238    C    0.95602   0.15630   0.55036   1.000
    C239    C    0.95602   0.65629   0.55036   1.000
    C240    C    0.45448   0.45671   0.66617   1.000
    C241    C    0.45448   0.95670   0.66617   1.000
    C242    C    0.95447   0.45671   0.66617   1.000
    C243    C    0.95447   0.95670   0.66617   1.000
    C244    C    0.04425   0.13290   0.24665   1.000
    C245    C    0.04425   0.63289   0.24665   1.000
    C246    C    0.54424   0.13290   0.24665   1.000
    C247    C    0.54424   0.63289   0.24665   1.000
    C248    C    0.04324   0.34394   0.05100   1.000
    C249    C    0.04324   0.84393   0.05109   1.000
    C250    C    0.54323   0.34394   0.05109   1.000
    C251    C    0.54324   0.84393   0.05109   1.000
    C252    C    0.04734   0.04305   0.15921   1.000
    C253    C    0.04734   0.54304   0.15921   1.000
    C254    C    0.54734   0.04305   0.15921   1.000
    C255    C    0.54734   0.54304   0.15921   1.000
    C256    C    0.13094   0.04400   0.50291   1.000
    C257    C    0.13094   0.54399   0.50291   1.000
    C258    C    0.63094   0.04400   0.50291   1.000
    C259    C    0.63093   0.54400   0.50291   1.000
    C260    C    0.34195   0.04426   0.69975   1.000
    C261    C    0.34195   0.54425   0.69975   1.000
    C262    C    0.84194   0.04426   0.69975   1.000
    C263    C    0.84194   0.54425   0.69975   1.000
    C264    C    0.04187   0.04687   0.59175   1.000
    C265    C    0.04187   0.54686   0.59175   1.000
    C266    C    0.54186   0.04687   0.59175   1.000
    C267    C    0.54186   0.54686   0.59175   1.000
    C268    C    0.37184   0.46096   0.00287   1.000
    C269    C    0.37184   0.96095   0.00287   1.000
    C270    C    0.87183   0.46096   0.00287   1.000
    C271    C    0.87183   0.96095   0.00287   1.000
    C272    C    0.15839   0.45816   0.19973   1.000
    C273    C    0.15839   0.95815   0.19973   1.000
    C274    C    0.65838   0.45816   0.19973   1.000
    C275    C    0.65838   0.95815   0.19973   1.000
    C276    C    0.45877   0.45282   0.09566   1.000
    C277    C    0.45877   0.95282   0.09566   1.000
    C278    C    0.95876   0.45282   0.09566   1.000
    C279    C    0.95876   0.95282   0.09566   1.000
    C280    C    0.04424   0.36731   0.25482   1.000
    C281    C    0.04424   0.86731   0.25482   1.000
    C282    C    0.54423   0.36731   0.25482   1.000
    C283    C    0.54423   0.86731   0.25482   1.000
    C284    C    0.04120   0.15727   0.44919   1.000
    C285    C    0.04120   0.65726   0.44919   1.000
    C286    C    0.54120   0.15727   0.44919   1.000
    C287    C    0.54119   0.65726   0.44919   1.000
    C288    C    0.04709   0.45749   0.34150   1.000
    C289    C    0.04709   0.95748   0.34150   1.000
    C290    C    0.54708   0.45749   0.34150   1.000
    C291    C    0.54708   0.95748   0.34150   1.000
    C292    C    0.45792   0.13526   0.75130   1.000
    C293    C    0.45791   0.63526   0.75130   1.000
    C294    C    0.95791   0.13526   0.75130   1.000
    C295    C    0.95791   0.63526   0.75130   1.000
    C296    C    0.45818   0.34473   0.94993   1.000
    C297    C    0.45818   0.84472   0.94993   1.000
    C298    C    0.95817   0.34473   0.94993   1.000
    C299    C    0.95817   0.84472   0.94993   1.000
    C300    C    0.45519   0.04459   0.83720   1.000
    C301    C    0.45519   0.54458   0.83720   1.000
    C302    C    0.95518   0.04459   0.83720   1.000
    C303    C    0.95518   0.54458   0.83720   1.000
    O304    O    0.02200   0.33011   0.02560   1.000
    O305    O    0.97946   0.33051   0.97507   1.000
    O306    O    0.00084   0.28005   0.99991   1.000
    O307    O    0.02200   0.83011   0.02565   1.000
    O308    O    0.97946   0.83050   0.97507   1.000
    O309    O    0.00084   0.78004   0.99991   1.000
    O310    O    0.52199   0.33011   0.02565   1.000
    O311    O    0.47946   0.33051   0.97507   1.000
    O312    O    0.50084   0.28005   0.99991   1.000
    O313    O    0.52199   0.83011   0.02565   1.000
    O314    O    0.47946   0.83050   0.97507   1.000
    O315    O    0.50084   0.78005   0.99991   1.000
    O316    O    0.88517   0.96219   0.04357   1.000
    O317    O    0.90498   0.95007   0.93800   1.000
    O318    O    0.88517   0.46220   0.04357   1.000
    O319    O    0.90498   0.45007   0.93800   1.000
    O320    O    0.38517   0.96219   0.04357   1.000
    O321    O    0.40499   0.95007   0.93800   1.000
    O322    O    0.38517   0.46220   0.04357   1.000
    O323    O    0.40499   0.45008   0.93800   1.000
    O324    O    0.05324   0.39081   0.08930   1.000
    O325    O    0.55323   0.89081   0.08935   1.000
    O326    O    0.55323   0.39081   0.08935   1.000
    O327    O    0.05324   0.89081   0.08935   1.000
    O328    O    0.02107   0.17584   0.08048   1.000
    O329    O    0.02925   0.22282   0.11190   1.000
    O330    O    0.01115   0.22677   0.04003   1.000
    O331    O    0.52106   0.67583   0.08048   1.000
    O332    O    0.52925   0.72281   0.11190   1.000
    O333    O    0.51114   0.72676   0.04003   1.000
    O334    O    0.52106   0.17584   0.08048   1.000
    O335    O    0.52925   0.22282   0.11190   1.000
    O336    O    0.51114   0.22677   0.04003   1.000
    O337    O    0.02106   0.67583   0.08048   1.000
    O338    O    0.02925   0.72281   0.11190   1.000
    O339    O    0.01115   0.72676   0.04003   1.000
    O340    O    0.52990   0.62311   0.12373   1.000
    O341    O    0.51101   0.62546   0.03966   1.000
    O342    O    0.52990   0.12311   0.12373   1.000
    O343    O    0.51101   0.12547   0.03966   1.000
    O344    O    0.02990   0.62311   0.12370   1.000
    O345    O    0.01101   0.62546   0.03966   1.000
    O346    O    0.02991   0.12311   0.12373   1.000
    O347    O    0.01101   0.12546   0.03966   1.000
    O348    O    0.92863   0.45813   0.08996   1.000
    O349    O    0.87909   0.47233   0.12699   1.000
    O350    O    0.42864   0.45813   0.08996   1.000
    O351    O    0.37910   0.47233   0.12699   1.000
    O352    O    0.42864   0.95812   0.08996   1.000
    O353    O    0.37910   0.97233   0.12699   1.000
    O354    O    0.92863   0.95812   0.08996   1.000
    O355    O    0.87909   0.97233   0.12699   1.000
    O356    O    0.01100   0.44526   0.11163   1.000
    O357    O    0.51100   0.94525   0.11163   1.000
    O358    O    0.01100   0.94525   0.11163   1.000
    O359    O    0.51100   0.44526   0.11163   1.000
    O360    O    0.77902   0.47279   0.13838   1.000
    O361    O    0.77902   0.97278   0.13838   1.000
    O362    O    0.27903   0.97278   0.13838   1.000
    O363    O    0.27903   0.47279   0.13838   1.000
    O364    O    0.05529   0.49036   0.14341   1.000
    O365    O    0.11081   0.44792   0.16367   1.000
    O366    O    0.05374   0.40250   0.19121   1.000
    O367    O    0.09691   0.44809   0.06312   1.000
    O368    O    0.05529   0.99036   0.14341   1.000
    O369    O    0.11081   0.94791   0.16367   1.000
    O370    O    0.05374   0.90249   0.19121   1.000
    O371    O    0.09691   0.94809   0.06312   1.000
    O372    O    0.55528   0.49036   0.14341   1.000
    O373    O    0.61081   0.44792   0.16367   1.000
    O374    O    0.55373   0.40250   0.19121   1.000
    O375    O    0.59691   0.44809   0.06312   1.000
    O376    O    0.55528   0.99036   0.14341   1.000
    O377    O    0.61081   0.94791   0.16367   1.000
    O378    O    0.55373   0.90249   0.19121   1.000
    O379    O    0.59691   0.94809   0.06312   1.000
    O380    O    0.54319   0.57365   0.16308   1.000
    O381    O    0.54319   0.07366   0.16308   1.000
    O382    O    0.04319   0.57365   0.16305   1.000
    O383    O    0.04320   0.07366   0.16308   1.000
    O384    O    0.04165   0.61857   0.20677   1.000
    O385    O    0.04165   0.11858   0.20680   1.000
    O386    O    0.54164   0.11858   0.20680   1.000
    O387    O    0.54164   0.61858   0.20680   1.000
    O388    O    0.32595   0.48085   0.16979   1.000
    O389    O    0.37608   0.49081   0.21064   1.000
    O390    O    0.32595   0.98084   0.16979   1.000
    O391    O    0.37608   0.99082   0.21064   1.000
    O392    O    0.82594   0.48085   0.16979   1.000
    O393    O    0.87608   0.49081   0.21064   1.000
    O394    O    0.82594   0.98084   0.16979   1.000
    O395    O    0.87608   0.99082   0.21064   1.000
    O396    O    0.27534   0.49030   0.21063   1.000
    O397    O    0.77534   0.99030   0.21063   1.000
    O398    O    0.77534   0.49030   0.21063   1.000
    O399    O    0.27534   0.99030   0.21063   1.000
    O400    O    0.67233   0.97908   0.22564   1.000
    O401    O    0.67233   0.47908   0.22564   1.000
    O402    O    0.17234   0.97908   0.22564   1.000
    O403    O    0.17234   0.47908   0.22564   1.000
    O404    O    0.05327   0.09785   0.31061   1.000
    O405    O    0.05327   0.59784   0.31061   1.000
    O406    O    0.55327   0.09785   0.31061   1.000
    O407    O    0.55327   0.59784   0.31061   1.000
    O408    O    0.22238   0.50007   0.25147   1.000
    O409    O    0.27511   0.51006   0.29218   1.000
    O410    O    0.22238   0.00008   0.25147   1.000
    O411    O    0.27511   0.01007   0.29218   1.000
    O412    O    0.72237   0.00008   0.25147   1.000
    O413    O    0.77511   0.01007   0.29218   1.000
    O414    O    0.72237   0.50007   0.25147   1.000
    O415    O    0.77511   0.51006   0.29218   1.000
    O416    O    0.17218   0.02092   0.27757   1.000
    O417    O    0.17218   0.52091   0.27757   1.000
    O418    O    0.67217   0.02092   0.27757   1.000
    O419    O    0.67217   0.52091   0.27757   1.000
    O420    O    0.91862   0.50041   0.25159   1.000
    O421    O    0.87585   0.50997   0.29238   1.000
    O422    O    0.91862   0.00041   0.25159   1.000
    O423    O    0.87585   0.00997   0.29242   1.000
    O424    O    0.41863   0.00041   0.25159   1.000
    O425    O    0.37586   0.00997   0.29238   1.000
    O426    O    0.41863   0.50041   0.25159   1.000
    O427    O    0.37586   0.50996   0.29238   1.000
    O428    O    0.54136   0.88181   0.29450   1.000
    O429    O    0.54136   0.38182   0.29450   1.000
    O430    O    0.04137   0.88181   0.29450   1.000
    O431    O    0.04137   0.38182   0.29450   1.000
    O432    O    0.61018   0.05231   0.33908   1.000
    O433    O    0.11018   0.55230   0.33908   1.000
    O434    O    0.61018   0.55230   0.33908   1.000
    O435    O    0.11019   0.05231   0.33908   1.000
    O436    O    0.82549   0.01977   0.33312   1.000
    O437    O    0.77838   0.02764   0.36439   1.000
    O438    O    0.82549   0.51976   0.33308   1.000
    O439    O    0.77838   0.52764   0.36439   1.000
    O440    O    0.32549   0.51976   0.33308   1.000
    O441    O    0.27838   0.52763   0.36439   1.000
    O442    O    0.32549   0.01977   0.33308   1.000
    O443    O    0.27839   0.02764   0.36439   1.000
    O444    O    0.37830   0.02851   0.37610   1.000
    O445    O    0.37830   0.52850   0.37610   1.000
    O446    O    0.87829   0.52850   0.37610   1.000
    O447    O    0.87830   0.02851   0.37613   1.000
    O448    O    0.04280   0.42690   0.33784   1.000
    O449    O    0.02890   0.37769   0.37739   1.000
    O450    O    0.04279   0.92690   0.33784   1.000
    O451    O    0.02890   0.87768   0.37739   1.000
    O452    O    0.54279   0.42690   0.33784   1.000
    O453    O    0.52890   0.37769   0.37739   1.000
    O454    O    0.54279   0.92690   0.33784   1.000
    O455    O    0.52889   0.87768   0.37739   1.000
    O456    O    0.05470   0.51014   0.35803   1.000
    O457    O    0.05470   0.01014   0.35803   1.000
    O458    O    0.55469   0.51014   0.35803   1.000
    O459    O    0.55469   0.01014   0.35803   1.000
    O460    O    0.02724   0.77813   0.38884   1.000
    O461    O    0.02724   0.27814   0.38884   1.000
    O462    O    0.52723   0.27814   0.38884   1.000
    O463    O    0.52723   0.77814   0.38884   1.000
    O464    O    0.51009   0.55497   0.39159   1.000
    O465    O    0.55174   0.61003   0.41188   1.000
    O466    O    0.59661   0.55339   0.43874   1.000
    O467    O    0.51009   0.05498   0.39159   1.000
    O468    O    0.55174   0.11003   0.41188   1.000
    O469    O    0.59661   0.05340   0.43874   1.000
    O470    O    0.01009   0.55497   0.39159   1.000
    O471    O    0.05175   0.61003   0.41188   1.000
    O472    O    0.09662   0.55339   0.43874   1.000
    O473    O    0.01009   0.05498   0.39159   1.000
    O474    O    0.05175   0.11003   0.41188   1.000
    O475    O    0.09662   0.05340   0.43874   1.000
    O476    O    0.92762   0.54232   0.41380   1.000
    O477    O    0.92762   0.04232   0.41380   1.000
    O478    O    0.42763   0.54231   0.41380   1.000
    O479    O    0.42763   0.04232   0.41380   1.000
    O480    O    0.88365   0.03925   0.45899   1.000
    O481    O    0.38365   0.53924   0.45899   1.000
    O482    O    0.38365   0.03925   0.45899   1.000
    O483    O    0.88365   0.53924   0.45899   1.000
    O484    O    0.51929   0.82517   0.42045   1.000
    O485    O    0.50879   0.77431   0.46058   1.000
    O486    O    0.51930   0.32518   0.42045   1.000
    O487    O    0.50879   0.27431   0.46058   1.000
    O488    O    0.01930   0.82517   0.42045   1.000
    O489    O    0.00880   0.77431   0.46055   1.000
    O490    O    0.01930   0.32518   0.42045   1.000
    O491    O    0.00880   0.27431   0.46058   1.000
    O492    O    0.00956   0.37562   0.46153   1.000
    O493    O    0.00956   0.87562   0.46150   1.000
    O494    O    0.50956   0.37562   0.46153   1.000
    O495    O    0.50955   0.87562   0.46153   1.000
    O496    O    0.01980   0.17107   0.47465   1.000
    O497    O    0.01980   0.67106   0.47465   1.000
    O498    O    0.51980   0.17107   0.47465   1.000
    O499    O    0.51979   0.67106   0.47465   1.000
    O500    O    0.40384   0.05164   0.56351   1.000
    O501    O    0.40384   0.55163   0.56351   1.000
    O502    O    0.90384   0.05164   0.56351   1.000
    O503    O    0.90384   0.55163   0.56351   1.000
    O504    O    0.99835   0.22109   0.50048   1.000
    O505    O    0.97721   0.17058   0.52524   1.000
    O506    O    0.49834   0.72109   0.50048   1.000
    O507    O    0.47721   0.67058   0.52524   1.000
    O508    O    0.99835   0.72109   0.50046   1.000
    O509    O    0.97721   0.67058   0.52524   1.000
    O510    O    0.49835   0.22110   0.50049   1.000
    O511    O    0.47721   0.17058   0.52524   1.000
    O512    O    0.98808   0.77401   0.54147   1.000
    O513    O    0.48808   0.77401   0.54149   1.000
    O514    O    0.98809   0.27401   0.54149   1.000
    O515    O    0.48809   0.27402   0.54150   1.000
    O516    O    0.00026   0.91846   0.50278   1.000
    O517    O    0.98963   0.87533   0.54292   1.000
    O518    O    0.50025   0.91846   0.50282   1.000
    O519    O    0.48963   0.87533   0.54295   1.000
    O520    O    0.00026   0.41846   0.50282   1.000
    O521    O    0.98963   0.37534   0.54295   1.000
    O522    O    0.50026   0.41846   0.50282   1.000
    O523    O    0.48963   0.37534   0.54295   1.000
    O524    O    0.61690   0.04145   0.54297   1.000
    O525    O    0.11690   0.54144   0.54297   1.000
    O526    O    0.11690   0.04145   0.54297   1.000
    O527    O    0.61689   0.54144   0.54297   1.000
    O528    O    0.44689   0.10929   0.58919   1.000
    O529    O    0.44689   0.60928   0.58919   1.000
    O530    O    0.94688   0.60928   0.58919   1.000
    O531    O    0.94688   0.10929   0.58919   1.000
    O532    O    0.97866   0.82459   0.58279   1.000
    O533    O    0.96974   0.77731   0.61333   1.000
    O534    O    0.97866   0.32460   0.58279   1.000
    O535    O    0.96974   0.27732   0.61333   1.000
    O536    O    0.47866   0.82459   0.58279   1.000
    O537    O    0.46974   0.77731   0.61333   1.000
    O538    O    0.47867   0.32460   0.58279   1.000
    O539    O    0.46975   0.27732   0.61333   1.000
    O540    O    0.07236   0.04288   0.58739   1.000
    O541    O    0.12183   0.02993   0.62610   1.000
    O542    O    0.07236   0.54288   0.58739   1.000
    O543    O    0.12183   0.52993   0.62610   1.000
    O544    O    0.57236   0.04289   0.58739   1.000
    O545    O    0.62183   0.02994   0.62610   1.000
    O546    O    0.57236   0.54288   0.58739   1.000
    O547    O    0.62182   0.52993   0.62610   1.000
    O548    O    0.47048   0.37674   0.62718   1.000
    O549    O    0.47048   0.87673   0.62718   1.000
    O550    O    0.97047   0.37674   0.62718   1.000
    O551    O    0.97047   0.87673   0.62718   1.000
    O552    O    0.48981   0.05457   0.60989   1.000
    O553    O    0.98981   0.05457   0.60989   1.000
    O554    O    0.98981   0.55456   0.60989   1.000
    O555    O    0.48981   0.55456   0.60989   1.000
    O556    O    0.72151   0.53033   0.63850   1.000
    O557    O    0.72151   0.03034   0.63850   1.000
    O558    O    0.22152   0.53033   0.63850   1.000
    O559    O    0.22152   0.03033   0.63850   1.000
    O560    O    0.44612   0.50949   0.64709   1.000
    O561    O    0.38985   0.55326   0.66389   1.000
    O562    O    0.44783   0.59876   0.68966   1.000
    O563    O    0.44612   0.00949   0.64709   1.000
    O564    O    0.38985   0.05326   0.66389   1.000
    O565    O    0.44784   0.09877   0.68966   1.000
    O566    O    0.94611   0.50949   0.64709   1.000
    O567    O    0.88984   0.55326   0.66389   1.000
    O568    O    0.94783   0.59876   0.68966   1.000
    O569    O    0.94611   0.00949   0.64709   1.000
    O570    O    0.88984   0.05326   0.66389   1.000
    O571    O    0.94783   0.09877   0.68966   1.000
    O572    O    0.95799   0.92584   0.66854   1.000
    O573    O    0.95799   0.42585   0.66854   1.000
    O574    O    0.45800   0.92584   0.66854   1.000
    O575    O    0.45800   0.42585   0.66854   1.000
    O576    O    0.17453   0.02163   0.66951   1.000
    O577    O    0.12426   0.01089   0.70986   1.000
    O578    O    0.17453   0.52162   0.66951   1.000
    O579    O    0.12426   0.51088   0.70984   1.000
    O580    O    0.67453   0.02163   0.66951   1.000
    O581    O    0.62425   0.01089   0.70986   1.000
    O582    O    0.67453   0.52163   0.66951   1.000
    O583    O    0.62425   0.51088   0.70986   1.000
    O584    O    0.22501   0.01220   0.71055   1.000
    O585    O    0.72500   0.01220   0.71055   1.000
    O586    O    0.72500   0.51219   0.71055   1.000
    O587    O    0.22501   0.51219   0.71055   1.000
    O588    O    0.95840   0.88003   0.71026   1.000
    O589    O    0.95840   0.38004   0.71026   1.000
    O590    O    0.45840   0.88003   0.71026   1.000
    O591    O    0.45841   0.38004   0.71026   1.000
    O592    O    0.32791   0.02331   0.72572   1.000
    O593    O    0.32791   0.52330   0.72574   1.000
    O594    O    0.82790   0.02331   0.72574   1.000
    O595    O    0.82790   0.52330   0.72572   1.000
    O596    O    0.44672   0.40214   0.81137   1.000
    O597    O    0.44672   0.90213   0.81137   1.000
    O598    O    0.94671   0.40214   0.81137   1.000
    O599    O    0.94671   0.90213   0.81137   1.000
    O600    O    0.08158   0.00050   0.75032   1.000
    O601    O    0.58157   0.50049   0.75032   1.000
    O602    O    0.08158   0.50049   0.75030   1.000
    O603    O    0.58157   0.00050   0.75035   1.000
    O604    O    0.12426   0.49109   0.79142   1.000
    O605    O    0.62425   0.49109   0.79144   1.000
    O606    O    0.62425   0.99109   0.79144   1.000
    O607    O    0.12426   0.99109   0.79144   1.000
    O608    O    0.77780   0.50222   0.75149   1.000
    O609    O    0.72500   0.49173   0.79183   1.000
    O610    O    0.77780   0.00223   0.75151   1.000
    O611    O    0.72500   0.99173   0.79164   1.000
    O612    O    0.27781   0.50222   0.75151   1.000
    O613    O    0.22500   0.49172   0.79183   1.000
    O614    O    0.27781   0.00223   0.75149   1.000
    O615    O    0.22500   0.99172   0.79164   1.000
    O616    O    0.46064   0.12061   0.79098   1.000
    O617    O    0.96063   0.62060   0.79098   1.000
    O618    O    0.46063   0.62060   0.79098   1.000
    O619    O    0.96063   0.12061   0.79098   1.000
    O620    O    0.32792   0.98146   0.77791   1.000
    O621    O    0.82791   0.48146   0.77790   1.000
    O622    O    0.32792   0.48146   0.77792   1.000
    O623    O    0.82791   0.98146   0.77792   1.000
    O624    O    0.89005   0.94987   0.83862   1.000
    O625    O    0.89005   0.44988   0.83862   1.000
    O626    O    0.39006   0.44988   0.83862   1.000
    O627    O    0.39006   0.94987   0.83863   1.000
    O628    O    0.95926   0.07527   0.83394   1.000
    O629    O    0.97246   0.12436   0.87409   1.000
    O630    O    0.45927   0.07527   0.83394   1.000
    O631    O    0.47247   0.12436   0.87409   1.000
    O632    O    0.45927   0.57527   0.83394   1.000
    O633    O    0.47247   0.62435   0.87409   1.000
    O634    O    0.95926   0.57527   0.83394   1.000
    O635    O    0.97246   0.62435   0.87409   1.000
    O636    O    0.67452   0.98137   0.83217   1.000
    O637    O    0.72151   0.97354   0.86365   1.000
    O638    O    0.17453   0.98137   0.83217   1.000
    O639    O    0.22152   0.97354   0.86365   1.000
    O640    O    0.12183   0.97207   0.87522   1.000
    O641    O    0.67452   0.48137   0.83236   1.000
    O642    O    0.62182   0.47208   0.87525   1.000
    O643    O    0.17453   0.48137   0.83236   1.000
    O644    O    0.12183   0.47208   0.87522   1.000
    O645    O    0.62182   0.97207   0.87522   1.000
    O646    O    0.72151   0.47354   0.86384   1.000
    O647    O    0.22152   0.47354   0.86384   1.000
    O648    O    0.44667   0.99189   0.85517   1.000
    O649    O    0.44666   0.49189   0.85517   1.000
    O650    O    0.94666   0.99189   0.85517   1.000
    O651    O    0.94666   0.49189   0.85517   1.000
    O652    O    0.47268   0.22399   0.88704   1.000
    O653    O    0.47268   0.72399   0.88704   1.000
    O654    O    0.97267   0.22399   0.88704   1.000
    O655    O    0.97267   0.72399   0.88704   1.000
    O656    O    0.49019   0.44629   0.89080   1.000
    O657    O    0.44816   0.39196   0.91153   1.000
    O658    O    0.49019   0.94628   0.89080   1.000
    O659    O    0.44816   0.89195   0.91153   1.000
    O660    O    0.99019   0.44628   0.89080   1.000
    O661    O    0.94815   0.39196   0.91153   1.000
    O662    O    0.99019   0.94628   0.89080   1.000
    O663    O    0.94815   0.89195   0.91153   1.000
    O664    O    0.57255   0.45807   0.91331   1.000
    O665    O    0.57255   0.95807   0.91328   1.000
    O666    O    0.07255   0.95807   0.91328   1.000
    O667    O    0.07255   0.45807   0.91328   1.000
    O668    O    0.98110   0.67665   0.91792   1.000
    O669    O    0.99141   0.62586   0.95815   1.000
    O670    O    0.98110   0.17665   0.91792   1.000
    O671    O    0.99142   0.12586   0.95815   1.000
    O672    O    0.48111   0.67665   0.91792   1.000
    O673    O    0.49142   0.62586   0.95815   1.000
    O674    O    0.48111   0.17665   0.91792   1.000
    O675    O    0.49142   0.12586   0.95815   1.000
    O676    O    0.61671   0.96063   0.95836   1.000
    O677    O    0.11672   0.46064   0.95836   1.000
    O678    O    0.11672   0.96063   0.95836   1.000
    O679    O    0.61671   0.46064   0.95839   1.000
    O680    O    0.49078   0.22718   0.95896   1.000
    O681    O    0.49078   0.72717   0.95896   1.000
    O682    O    0.99078   0.22718   0.95896   1.000
    O683    O    0.99077   0.72717   0.95896   1.000
    O684    O    0.00136   0.08269   0.99865   1.000
    O685    O    0.50135   0.58268   0.99866   1.000
    O686    O    0.50135   0.08269   0.99866   1.000
    O687    O    0.00063   0.58268   0.99866   1.000
    O688    O    0.44631   0.44795   0.76965   1.000
    O689    O    0.44631   0.94794   0.76965   1.000
    O690    O    0.94630   0.44795   0.76965   1.000
    O691    O    0.94630   0.94794   0.76965   1.000
    O692    O    0.44647   0.05343   0.73261   1.000
    O693    O    0.44647   0.55342   0.73261   1.000
    O694    O    0.94646   0.05343   0.73261   1.000
    O695    O    0.94646   0.55342   0.73261   1.000
loop_
    _geom_bond_atom_site_label_1
    _geom_bond_atom_site_label_2
    _geom_bond_distance
    _geom_bond_site_symmetry_2
    _ccdc_geom_bond_type
    C200   O304      0.63654      .   S
    C248   O304      0.63654      .   S
    C200   O305      0.63635  1_454   S
    C298   O305      0.63635      .   S
    C200   O306      0.74888  1_554   S
    C196   O306      0.74888      .   S
    C201   O307      0.63692      .   S
    C249   O307      0.63692      .   S
    C201   O308      0.63635  1_454   S
    C299   O308      0.63635      .   S
    C201   O309      0.74889  1_554   S
    C197   O309      0.74889      .   S
    C202   O310      0.63691      .   S
    C250   O310      0.63691      .   S
    C202   O311      0.63626  1_554   S
    C296   O311      0.63626      .   S
    C202   O312      0.74888  1_554   S
    C198   O312      0.74888      .   S
    C203   O313      0.63691      .   S
    C251   O313      0.63691      .   S
    C203   O314      0.63626  1_554   S
    C297   O314      0.63626      .   S
    C203   O315      0.74888  1_554   S
    C199   O315      0.74888      .   S
    C271   O316      0.63594      .   S
    C135   O316      0.63594      .   S
    C271   O317      1.16268  1_554   S
    C11    O317      1.16268      .   S
    C270   O318      0.63594      .   S
    C134   O318      0.63594      .   S
    C270   O319      1.16267  1_554   S
    C10    O319      1.16267      .   S
    C269   O320      0.63594      .   S
    C133   O320      0.63594      .   S
    C269   O321      1.16268  1_554   S
    C9     O321      1.16268      .   S
    C268   O322      0.63594      .   S
    C132   O322      0.63594      .   S
    C268   O323      1.16268  1_554   S
    C8     O323      1.16268      .   S
    C248   O324      1.12944      .   S
    C4     O324      1.12944      .   S
    C251   O325      1.12913      .   S
    C7     O325      1.12913      .   S
    C250   O326      1.12913      .   S
    C6     O326      1.12913      .   S
    C249   O327      1.12914      .   S
    C5     O327      1.12914      .   S
    C100   O328      0.70015      .   S
    C104   O328      0.70015      .   S
    C100   O329      0.54452      .   S
    C28    O329      0.54452      .   S
    C100   O330      0.69999      .   S
    C196   O330      0.69999  1_556   S
    C103   O331      0.70015      .   S
    C107   O331      0.70015      .   S
    C103   O332      0.54452      .   S
    C31    O332      0.54452      .   S
    C103   O333      0.69999      .   S
    C199   O333      0.69999  1_556   S
    C102   O334      0.70015      .   S
    C106   O334      0.70015      .   S
    C102   O335      0.54453      .   S
    C30    O335      0.54453      .   S
    C102   O336      0.69999      .   S
    C198   O336      0.69999  1_556   S
    C101   O337      0.70015      .   S
    C105   O337      0.70015      .   S
    C101   O338      0.54452      .   S
    C29    O338      0.54452      .   S
    C101   O339      0.70000      .   S
    C197   O339      0.70000  1_556   S
    C107   O340      0.74468      .   S
    C111   O340      0.74468      .   S
    C107   O341      0.69878      .   S
    C207   O341      0.69878  1_556   S
    C106   O342      0.74468      .   S
    C110   O342      0.74468      .   S
    C106   O343      0.69877      .   S
    C206   O343      0.69877  1_556   S
    C105   O344      0.74434      .   S
    C109   O344      0.74434      .   S
    C105   O345      0.69877      .   S
    C205   O345      0.69877  1_556   S
    C104   O346      0.74469      .   S
    C108   O346      0.74469      .   S
    C104   O347      0.69884      .   S
    C204   O347      0.69884  1_556   S
    C134   O348      0.63939      .   S
    C278   O348      0.63939      .   S
    C134   O349      0.74525      .   S
    C130   O349      0.74525      .   S
    C132   O350      0.63939      .   S
    C276   O350      0.63939      .   S
    C132   O351      0.74526      .   S
    C128   O351      0.74526      .   S
    C133   O352      0.63939      .   S
    C277   O352      0.63939      .   S
    C133   O353      0.74525      .   S
    C129   O353      0.74525      .   S
    C135   O354      0.63938      .   S
    C279   O354      0.63938      .   S
    C135   O355      0.74526      .   S
    C131   O355      0.74526      .   S
    C278   O356      1.11755  1_655   S
    C4     O356      1.11755      .   S
    C277   O357      1.11740      .   S
    C7     O357      1.11740      .   S
    C279   O358      1.11756  1_655   S
    C5     O358      1.11756      .   S
    C276   O359      1.11740      .   S
    C6     O359      1.11740      .   S
    C38    O360      0.54460      .   S
    C126   O360      0.54460      .   S
    C39    O361      0.54460      .   S
    C127   O361      0.54460      .   S
    C37    O362      0.54460      .   S
    C125   O362      0.54460      .   S
    C36    O363      0.54460      .   S
    C124   O363      0.54460      .   S
    C4     O364      1.12308      .   S
    C253   O364      1.12308      .   S
    C4     O365      1.13117      .   S
    C272   O365      1.13117      .   S
    C4     O366      1.16739      .   S
    C280   O366      1.16739      .   S
    C4     O367      1.16343      .   S
    C220   O367      1.16343  1_556   S
    C5     O368      1.12322      .   S
    C252   O368      1.12322  1_545   S
    C5     O369      1.13117      .   S
    C273   O369      1.13117      .   S
    C5     O370      1.16739      .   S
    C281   O370      1.16739      .   S
    C5     O371      1.16343      .   S
    C221   O371      1.16343  1_556   S
    C6     O372      1.12308      .   S
    C255   O372      1.12308      .   S
    C6     O373      1.13117      .   S
    C274   O373      1.13117      .   S
    C6     O374      1.16738      .   S
    C282   O374      1.16738      .   S
    C6     O375      1.16344      .   S
    C222   O375      1.16344  1_556   S
    C7     O376      1.12322      .   S
    C254   O376      1.12322  1_545   S
    C7     O377      1.13118      .   S
    C275   O377      1.13118      .   S
    C7     O378      1.16739      .   S
    C283   O378      1.16739      .   S
    C7     O379      1.16343      .   S
    C223   O379      1.16343  1_556   S
    C255   O380      0.64048      .   S
    C111   O380      0.64048      .   S
    C254   O381      0.64048      .   S
    C110   O381      0.64048      .   S
    C253   O382      0.64044      .   S
    C109   O382      0.64044      .   S
    C252   O383      0.64048      .   S
    C108   O383      0.64048      .   S
    C109   O384      0.63653      .   S
    C245   O384      0.63653      .   S
    C108   O385      0.63615      .   S
    C244   O385      0.63615      .   S
    C110   O386      0.63615      .   S
    C246   O386      0.63615      .   S
    C111   O387      0.63615      .   S
    C247   O387      0.63615      .   S
    C128   O388      0.70016      .   S
    C124   O388      0.70016      .   S
    C128   O389      0.69784      .   S
    C169   O389      0.69784      .   S
    C129   O390      0.70016      .   S
    C125   O390      0.70016      .   S
    C129   O391      0.69789      .   S
    C168   O391      0.69789  1_545   S
    C130   O392      0.70016      .   S
    C126   O392      0.70016      .   S
    C130   O393      0.69784      .   S
    C171   O393      0.69784      .   S
    C131   O394      0.70015      .   S
    C127   O394      0.70015      .   S
    C131   O395      0.69790      .   S
    C170   O395      0.69790  1_545   S
    C124   O396      0.70081      .   S
    C161   O396      0.70081      .   S
    C127   O397      0.70085      .   S
    C162   O397      0.70085  1_545   S
    C126   O398      0.70081      .   S
    C163   O398      0.70081      .   S
    C125   O399      0.70085      .   S
    C160   O399      0.70085  1_545   S
    C275   O400      0.63685      .   S
    C166   O400      0.63685  1_545   S
    C274   O401      0.63674      .   S
    C167   O401      0.63674      .   S
    C273   O402      0.63685      .   S
    C164   O402      0.63685  1_545   S
    C272   O403      0.63673      .   S
    C165   O403      0.63673      .   S
    C244   O404      1.16719      .   S
    C12    O404      1.16719      .   S
    C245   O405      1.16719      .   S
    C13    O405      1.16719      .   S
    C246   O406      1.16719      .   S
    C14    O406      1.16719      .   S
    C247   O407      1.16719      .   S
    C15    O407      1.16719      .   S
    C161   O408      0.74898      .   S
    C165   O408      0.74898      .   S
    C161   O409      0.70078      .   S
    C65    O409      0.70078      .   S
    C160   O410      0.74898      .   S
    C164   O410      0.74898      .   S
    C160   O411      0.70078      .   S
    C64    O411      0.70078      .   S
    C162   O412      0.74898      .   S
    C166   O412      0.74898      .   S
    C162   O413      0.70077      .   S
    C66    O413      0.70077      .   S
    C163   O414      0.74898      .   S
    C167   O414      0.74898      .   S
    C163   O415      0.70078      .   S
    C67    O415      0.70078      .   S
    C164   O416      0.63669      .   S
    C212   O416      0.63669      .   S
    C165   O417      0.63669      .   S
    C213   O417      0.63669      .   S
    C166   O418      0.63669      .   S
    C214   O418      0.63669      .   S
    C167   O419      0.63669      .   S
    C215   O419      0.63669      .   S
    C171   O420      0.54254      .   S
    C51    O420      0.54254      .   S
    C171   O421      0.69731      .   S
    C71    O421      0.69731      .   S
    C170   O422      0.54254      .   S
    C50    O422      0.54254      .   S
    C170   O423      0.69778      .   S
    C70    O423      0.69778      .   S
    C168   O424      0.54254      .   S
    C48    O424      0.54254      .   S
    C168   O425      0.69731      .   S
    C68    O425      0.69731      .   S
    C169   O426      0.54254      .   S
    C49    O426      0.54254      .   S
    C169   O427      0.69731      .   S
    C69    O427      0.69731      .   S
    C283   O428      0.63610      .   S
    C147   O428      0.63610      .   S
    C282   O429      0.63609      .   S
    C146   O429      0.63609      .   S
    C281   O430      0.63610      .   S
    C145   O430      0.63610      .   S
    C280   O431      0.63610      .   S
    C144   O431      0.63610      .   S
    C214   O432      1.13149      .   S
    C14    O432      1.13149      .   S
    C213   O433      1.13148      .   S
    C13    O433      1.13148      .   S
    C215   O434      1.13149      .   S
    C15    O434      1.13149      .   S
    C212   O435      1.13148      .   S
    C12    O435      1.13148      .   S
    C66    O436      0.70009      .   S
    C70    O436      0.70009      .   S
    C66    O437      0.54456      .   S
    C18    O437      0.54456      .   S
    C67    O438      0.70009      .   S
    C71    O438      0.70009      .   S
    C67    O439      0.54456      .   S
    C19    O439      0.54456      .   S
    C65    O440      0.70009      .   S
    C69    O440      0.70009      .   S
    C65    O441      0.54456      .   S
    C17    O441      0.54456      .   S
    C64    O442      0.70009      .   S
    C68    O442      0.70009      .   S
    C64    O443      0.54456      .   S
    C16    O443      0.54456      .   S
    C68    O444      0.74548      .   S
    C72    O444      0.74548      .   S
    C69    O445      0.74548      .   S
    C73    O445      0.74548      .   S
    C71    O446      0.74548      .   S
    C75    O446      0.74548      .   S
    C70    O447      0.74502      .   S
    C74    O447      0.74502      .   S
    C144   O448      0.64096      .   S
    C288   O448      0.64096      .   S
    C144   O449      0.74512      .   S
    C140   O449      0.74512      .   S
    C145   O450      0.64096      .   S
    C289   O450      0.64096      .   S
    C145   O451      0.74512      .   S
    C141   O451      0.74512      .   S
    C146   O452      0.64095      .   S
    C290   O452      0.64095      .   S
    C146   O453      0.74512      .   S
    C142   O453      0.74512      .   S
    C147   O454      0.64096      .   S
    C291   O454      0.64096      .   S
    C147   O455      0.74512      .   S
    C143   O455      0.74512      .   S
    C288   O456      1.12506      .   S
    C13    O456      1.12506      .   S
    C289   O457      1.12521  1_565   S
    C12    O457      1.12521      .   S
    C290   O458      1.12505      .   S
    C15    O458      1.12505      .   S
    C291   O459      1.12520  1_565   S
    C14    O459      1.12520      .   S
    C41    O460      0.54455      .   S
    C137   O460      0.54455      .   S
    C40    O461      0.54455      .   S
    C136   O461      0.54455      .   S
    C42    O462      0.54455      .   S
    C138   O462      0.54455      .   S
    C43    O463      0.54455      .   S
    C139   O463      0.54455      .   S
    C15    O464      1.12147      .   S
    C217   O464      1.12147      .   S
    C15    O465      1.12967      .   S
    C287   O465      1.12967      .   S
    C15    O466      1.16465      .   S
    C259   O466      1.16465      .   S
    C14    O467      1.12147      .   S
    C216   O467      1.12147      .   S
    C14    O468      1.12965      .   S
    C286   O468      1.12965      .   S
    C14    O469      1.16465      .   S
    C258   O469      1.16465      .   S
    C13    O470      1.12162      .   S
    C219   O470      1.12162  1_655   S
    C13    O471      1.12965      .   S
    C285   O471      1.12965      .   S
    C13    O472      1.16465      .   S
    C257   O472      1.16465      .   S
    C12    O473      1.12162      .   S
    C218   O473      1.12162  1_655   S
    C12    O474      1.12965      .   S
    C284   O474      1.12965      .   S
    C12    O475      1.16464      .   S
    C256   O475      1.16464      .   S
    C219   O476      0.64018      .   S
    C75    O476      0.64018      .   S
    C218   O477      0.64018      .   S
    C74    O477      0.64018      .   S
    C217   O478      0.64018      .   S
    C73    O478      0.64018      .   S
    C216   O479      0.64018      .   S
    C72    O479      0.64018      .   S
    C74    O480      0.63059      .   S
    C210   O480      0.63059      .   S
    C73    O481      0.63059      .   S
    C209   O481      0.63059      .   S
    C72    O482      0.63059      .   S
    C208   O482      0.63059      .   S
    C75    O483      0.63059      .   S
    C211   O483      0.63059      .   S
    C139   O484      0.70009      .   S
    C143   O484      0.70009      .   S
    C139   O485      0.69992      .   S
    C187   O485      0.69992      .   S
    C138   O486      0.70009      .   S
    C142   O486      0.70009      .   S
    C138   O487      0.69998      .   S
    C186   O487      0.69998      .   S
    C137   O488      0.70010      .   S
    C141   O488      0.70010      .   S
    C137   O489      0.69964      .   S
    C185   O489      0.69964  1_655   S
    C136   O490      0.70010      .   S
    C140   O490      0.70010      .   S
    C136   O491      0.69993      .   S
    C184   O491      0.69993  1_655   S
    C140   O492      0.69912      .   S
    C192   O492      0.69912  1_655   S
    C141   O493      0.69872      .   S
    C193   O493      0.69872  1_655   S
    C142   O494      0.69912      .   S
    C194   O494      0.69912      .   S
    C143   O495      0.69912      .   S
    C195   O495      0.69912      .   S
    C284   O496      0.63676      .   S
    C188   O496      0.63676  1_655   S
    C285   O497      0.63676      .   S
    C189   O497      0.63676  1_655   S
    C286   O498      0.63675      .   S
    C190   O498      0.63675      .   S
    C287   O499      0.63676      .   S
    C191   O499      0.63676      .   S
    C208   O500      1.16969      .   S
    C0     O500      1.16969      .   S
    C209   O501      1.16969      .   S
    C1     O501      1.16969      .   S
    C210   O502      1.16969      .   S
    C2     O502      1.16969      .   S
    C211   O503      1.16969      .   S
    C3     O503      1.16969      .   S
    C188   O504      0.74874      .   S
    C184   O504      0.74874      .   S
    C188   O505      0.63657      .   S
    C238   O505      0.63657      .   S
    C191   O506      0.74875      .   S
    C187   O506      0.74875      .   S
    C191   O507      0.63646      .   S
    C237   O507      0.63646      .   S
    C189   O508      0.74874      .   S
    C185   O508      0.74874      .   S
    C189   O509      0.63658      .   S
    C239   O509      0.63658      .   S
    C190   O510      0.74875      .   S
    C186   O510      0.74875      .   S
    C190   O511      0.63647      .   S
    C236   O511      0.63647      .   S
    C185   O512      0.70017      .   S
    C91    O512      0.70017      .   S
    C187   O513      0.69982      .   S
    C89    O513      0.69982      .   S
    C184   O514      0.69987      .   S
    C90    O514      0.69987      .   S
    C186   O515      0.69978      .   S
    C88    O515      0.69978      .   S
    C193   O516      0.54308  1_655   S
    C57    O516      0.54308      .   S
    C193   O517      0.69934      .   S
    C95    O517      0.69934      .   S
    C195   O518      0.54308      .   S
    C59    O518      0.54308      .   S
    C195   O519      0.69890      .   S
    C93    O519      0.69890      .   S
    C192   O520      0.54308  1_655   S
    C56    O520      0.54308      .   S
    C192   O521      0.69895      .   S
    C94    O521      0.69895      .   S
    C194   O522      0.54308      .   S
    C58    O522      0.54308      .   S
    C194   O523      0.69889      .   S
    C92    O523      0.69889      .   S
    C258   O524      0.63539      .   S
    C122   O524      0.63539      .   S
    C257   O525      0.63539      .   S
    C121   O525      0.63539      .   S
    C256   O526      0.63539      .   S
    C120   O526      0.63539      .   S
    C259   O527      0.63539      .   S
    C123   O527      0.63539      .   S
    C236   O528      1.12956      .   S
    C0     O528      1.12956      .   S
    C237   O529      1.12956      .   S
    C1     O529      1.12956      .   S
    C239   O530      1.12956      .   S
    C3     O530      1.12956      .   S
    C238   O531      1.12957      .   S
    C2     O531      1.12957      .   S
    C91    O532      0.70078      .   S
    C95    O532      0.70078      .   S
    C91    O533      0.54457      .   S
    C27    O533      0.54457      .   S
    C90    O534      0.70078      .   S
    C94    O534      0.70078      .   S
    C90    O535      0.54457      .   S
    C26    O535      0.54457      .   S
    C89    O536      0.70079      .   S
    C93    O536      0.70079      .   S
    C89    O537      0.54457      .   S
    C25    O537      0.54457      .   S
    C88    O538      0.70078      .   S
    C92    O538      0.70078      .   S
    C88    O539      0.54457      .   S
    C24    O539      0.54457      .   S
    C120   O540      0.64076      .   S
    C264   O540      0.64076      .   S
    C120   O541      0.74467      .   S
    C116   O541      0.74467      .   S
    C121   O542      0.64076      .   S
    C265   O542      0.64076      .   S
    C121   O543      0.74467      .   S
    C117   O543      0.74467      .   S
    C122   O544      0.64077      .   S
    C266   O544      0.64077      .   S
    C122   O545      0.74466      .   S
    C118   O545      0.74466      .   S
    C123   O546      0.64077      .   S
    C267   O546      0.64077      .   S
    C123   O547      0.74467      .   S
    C119   O547      0.74467      .   S
    C92    O548      0.74467      .   S
    C96    O548      0.74467      .   S
    C93    O549      0.74467      .   S
    C97    O549      0.74467      .   S
    C94    O550      0.74467      .   S
    C98    O550      0.74467      .   S
    C95    O551      0.74467      .   S
    C99    O551      0.74467      .   S
    C266   O552      1.12027      .   S
    C0     O552      1.12027      .   S
    C264   O553      1.12042  1_455   S
    C2     O553      1.12042      .   S
    C265   O554      1.12042  1_455   S
    C3     O554      1.12042      .   S
    C267   O555      1.12027      .   S
    C1     O555      1.12027      .   S
    C35    O556      0.54459      .   S
    C115   O556      0.54459      .   S
    C34    O557      0.54459      .   S
    C114   O557      0.54459      .   S
    C33    O558      0.54459      .   S
    C113   O558      0.54459      .   S
    C32    O559      0.54459      .   S
    C112   O559      0.54459      .   S
    C1     O560      1.13509      .   S
    C240   O560      1.13509      .   S
    C1     O561      1.12980      .   S
    C261   O561      1.12980      .   S
    C1     O562      1.16932      .   S
    C293   O562      1.16932      .   S
    C0     O563      1.13524      .   S
    C241   O563      1.13524  1_565   S
    C0     O564      1.12980      .   S
    C260   O564      1.12980      .   S
    C0     O565      1.16932      .   S
    C292   O565      1.16932      .   S
    C3     O566      1.13509      .   S
    C242   O566      1.13509      .   S
    C3     O567      1.12980      .   S
    C263   O567      1.12980      .   S
    C3     O568      1.16933      .   S
    C295   O568      1.16933      .   S
    C2     O569      1.13524      .   S
    C243   O569      1.13524  1_565   S
    C2     O570      1.12980      .   S
    C262   O570      1.12980      .   S
    C2     O571      1.16932      .   S
    C294   O571      1.16932      .   S
    C243   O572      0.64239      .   S
    C99    O572      0.64239      .   S
    C242   O573      0.64239      .   S
    C98    O573      0.64239      .   S
    C241   O574      0.64239      .   S
    C97    O574      0.64239      .   S
    C240   O575      0.64239      .   S
    C96    O575      0.64239      .   S
    C116   O576      0.70023      .   S
    C112   O576      0.70023      .   S
    C116   O577      0.69795      .   S
    C180   O577      0.69795      .   S
    C117   O578      0.70023      .   S
    C113   O578      0.70023      .   S
    C117   O579      0.69772      .   S
    C181   O579      0.69772      .   S
    C118   O580      0.70023      .   S
    C114   O580      0.70023      .   S
    C118   O581      0.69796      .   S
    C182   O581      0.69796      .   S
    C119   O582      0.70022      .   S
    C115   O582      0.70022      .   S
    C119   O583      0.69795      .   S
    C183   O583      0.69795      .   S
    C112   O584      0.70042      .   S
    C172   O584      0.70042      .   S
    C114   O585      0.70041      .   S
    C174   O585      0.70041      .   S
    C115   O586      0.70042      .   S
    C175   O586      0.70042      .   S
    C113   O587      0.70041      .   S
    C173   O587      0.70041      .   S
    C99    O588      0.63563      .   S
    C235   O588      0.63563      .   S
    C98    O589      0.63563      .   S
    C234   O589      0.63563      .   S
    C97    O590      0.63563      .   S
    C233   O590      0.63563      .   S
    C96    O591      0.63563      .   S
    C232   O591      0.63563      .   S
    C260   O592      0.63669      .   S
    C176   O592      0.63669      .   S
    C261   O593      0.63684      .   S
    C177   O593      0.63684      .   S
    C262   O594      0.63684      .   S
    C178   O594      0.63684      .   S
    C263   O595      0.63669      .   S
    C179   O595      0.63669      .   S
    C232   O596      1.17156      .   S
    C8     O596      1.17156      .   S
    C233   O597      1.17155      .   S
    C9     O597      1.17155      .   S
    C234   O598      1.17156      .   S
    C10    O598      1.17156      .   S
    C235   O599      1.17157      .   S
    C11    O599      1.17157      .   S
    C52    O600      0.54252      .   S
    C180   O600      0.54252      .   S
    C55    O601      0.54252      .   S
    C183   O601      0.54252      .   S
    C53    O602      0.54252      .   S
    C181   O602      0.54252      .   S
    C54    O603      0.54252      .   S
    C182   O603      0.54252      .   S
    C181   O604      0.69824      .   S
    C80    O604      0.69824      .   S
    C183   O605      0.69801      .   S
    C82    O605      0.69801      .   S
    C182   O606      0.69804  1_545   S
    C83    O606      0.69804      .   S
    C180   O607      0.69805  1_545   S
    C81    O607      0.69805      .   S
    C175   O608      0.74821      .   S
    C179   O608      0.74821      .   S
    C175   O609      0.70043      .   S
    C78    O609      0.70043      .   S
    C174   O610      0.74821      .   S
    C178   O610      0.74821      .   S
    C174   O611      0.69827  1_545   S
    C79    O611      0.69827      .   S
    C173   O612      0.74822      .   S
    C177   O612      0.74822      .   S
    C173   O613      0.70043      .   S
    C76    O613      0.70043      .   S
    C172   O614      0.74822      .   S
    C176   O614      0.74822      .   S
    C172   O615      0.69826  1_545   S
    C77    O615      0.69826      .   S
    C292   O616      0.63599      .   S
    C156   O616      0.63599      .   S
    C295   O617      0.63599      .   S
    C159   O617      0.63599      .   S
    C293   O618      0.63599      .   S
    C157   O618      0.63599      .   S
    C294   O619      0.63599      .   S
    C158   O619      0.63599      .   S
    C176   O620      0.63680  1_545   S
    C225   O620      0.63680      .   S
    C179   O621      0.63659      .   S
    C226   O621      0.63659      .   S
    C177   O622      0.63643      .   S
    C224   O622      0.63643      .   S
    C178   O623      0.63652  1_545   S
    C227   O623      0.63652      .   S
    C227   O624      1.13055      .   S
    C11    O624      1.13055      .   S
    C226   O625      1.13054      .   S
    C10    O625      1.13054      .   S
    C224   O626      1.13054      .   S
    C8     O626      1.13054      .   S
    C225   O627      1.13045      .   S
    C9     O627      1.13045      .   S
    C158   O628      0.64165      .   S
    C302   O628      0.64165      .   S
    C158   O629      0.74451      .   S
    C154   O629      0.74451      .   S
    C156   O630      0.64164      .   S
    C300   O630      0.64164      .   S
    C156   O631      0.74451      .   S
    C152   O631      0.74451      .   S
    C157   O632      0.64165      .   S
    C301   O632      0.64165      .   S
    C157   O633      0.74451      .   S
    C153   O633      0.74451      .   S
    C159   O634      0.64165      .   S
    C303   O634      0.64165      .   S
    C159   O635      0.74450      .   S
    C155   O635      0.74450      .   S
    C79    O636      0.69985      .   S
    C83    O636      0.69985      .   S
    C79    O637      0.54674      .   S
    C23    O637      0.54674      .   S
    C77    O638      0.69985      .   S
    C81    O638      0.69985      .   S
    C77    O639      0.54674      .   S
    C21    O639      0.54674      .   S
    C81    O640      0.74440      .   S
    C85    O640      0.74440      .   S
    C82    O641      0.69985      .   S
    C78    O641      0.69985      .   S
    C82    O642      0.74474      .   S
    C86    O642      0.74474      .   S
    C80    O643      0.69985      .   S
    C76    O643      0.69985      .   S
    C80    O644      0.74439      .   S
    C84    O644      0.74439      .   S
    C83    O645      0.74440      .   S
    C87    O645      0.74440      .   S
    C78    O646      0.54452      .   S
    C22    O646      0.54452      .   S
    C76    O647      0.54452      .   S
    C20    O647      0.54452      .   S
    C300   O648      1.13200  1_545   S
    C9     O648      1.13200      .   S
    C301   O649      1.13184      .   S
    C8     O649      1.13184      .   S
    C302   O650      1.13199  1_545   S
    C11    O650      1.13199      .   S
    C303   O651      1.13185      .   S
    C10    O651      1.13185      .   S
    C44    O652      0.54460      .   S
    C148   O652      0.54460      .   S
    C45    O653      0.54460      .   S
    C149   O653      0.54460      .   S
    C46    O654      0.54461      .   S
    C150   O654      0.54461      .   S
    C47    O655      0.54461      .   S
    C151   O655      0.54461      .   S
    C8     O656      1.11896      .   S
    C230   O656      1.11896      .   S
    C8     O657      1.13247      .   S
    C296   O657      1.13247      .   S
    C9     O658      1.11896      .   S
    C231   O658      1.11896      .   S
    C9     O659      1.13247      .   S
    C297   O659      1.13247      .   S
    C10    O660      1.11911      .   S
    C228   O660      1.11911  1_455   S
    C10    O661      1.13246      .   S
    C298   O661      1.13246      .   S
    C11    O662      1.11911      .   S
    C229   O662      1.11911  1_455   S
    C11    O663      1.13247      .   S
    C299   O663      1.13247      .   S
    C230   O664      0.64039      .   S
    C86    O664      0.64039      .   S
    C231   O665      0.64035      .   S
    C87    O665      0.64035      .   S
    C229   O666      0.64034      .   S
    C85    O666      0.64034      .   S
    C228   O667      0.64035      .   S
    C84    O667      0.64035      .   S
    C155   O668      0.70054      .   S
    C151   O668      0.70054      .   S
    C155   O669      0.69868      .   S
    C205   O669      0.69868  1_455   S
    C154   O670      0.70054      .   S
    C150   O670      0.70054      .   S
    C154   O671      0.69862      .   S
    C204   O671      0.69862  1_455   S
    C153   O672      0.70054      .   S
    C149   O672      0.70054      .   S
    C153   O673      0.69863      .   S
    C207   O673      0.69863      .   S
    C152   O674      0.70055      .   S
    C148   O674      0.70055      .   S
    C152   O675      0.69862      .   S
    C206   O675      0.69862      .   S
    C87    O676      0.63611      .   S
    C223   O676      0.63611      .   S
    C84    O677      0.63611      .   S
    C220   O677      0.63611      .   S
    C85    O678      0.63611      .   S
    C221   O678      0.63611      .   S
    C86    O679      0.63574      .   S
    C222   O679      0.63574      .   S
    C148   O680      0.70010      .   S
    C198   O680      0.70010      .   S
    C149   O681      0.70010      .   S
    C199   O681      0.70010      .   S
    C150   O682      0.70015      .   S
    C196   O682      0.70015  1_455   S
    C151   O683      0.70014      .   S
    C197   O683      0.70014  1_455   S
    C60    O684      0.54302      .   S
    C204   O684      0.54302      .   S
    C63    O685      0.54302      .   S
    C207   O685      0.54302      .   S
    C62    O686      0.54302      .   S
    C206   O686      0.54302      .   S
    C61    O687      0.54324      .   S
    C205   O687      0.54324      .   S
    C240   O688      1.47366      .   S
    C8     O688      1.47366      .   S
    C241   O689      1.47366      .   S
    C9     O689      1.47366      .   S
    C242   O690      1.47366      .   S
    C10    O690      1.47366      .   S
    C243   O691      1.47366      .   S
    C11    O691      1.47366      .   S
    C300   O692      1.49072      .   S
    C0     O692      1.49072      .   S
    C301   O693      1.49072      .   S
    C1     O693      1.49072      .   S
    C302   O694      1.49072      .   S
    C2     O694      1.49072      .   S
    C303   O695      1.49072      .   S
    C3     O695      1.49072      .   S
