# CIF file generated by openbabel 2.4.90, see http://openbabel.sf.net
data_I
_chemical_name_common ''
_cell_length_a 20.752
_cell_length_b 20.667
_cell_length_c 14.043
_cell_angle_alpha 89.845
_cell_angle_beta 89.931
_cell_angle_gamma 89.747
_space_group_name_H-M_alt 'P 1'
_space_group_name_Hall 'P 1'
loop_
    _symmetry_equiv_pos_as_xyz
    x,y,z
loop_
    _atom_site_label
    _atom_site_type_symbol
    _atom_site_fract_x
    _atom_site_fract_y
    _atom_site_fract_z
    _atom_site_occupancy
    N0      N    0.67342   0.50137   0.75092   1.000
    N1      N    0.99935   0.32550   0.50176   1.000
    N2      N    0.99935   0.82550   0.50176   1.000
    N3      N    0.49935   0.32550   0.50176   1.000
    N4      N    0.49934   0.82550   0.50176   1.000
    N5      N    0.50106   0.67547   0.99922   1.000
    N6      N    0.17343   0.00138   0.75090   1.000
    N7      N    0.17343   0.50137   0.75092   1.000
    N8      N    0.67342   0.00138   0.75090   1.000
    N9      N    0.32703   0.50030   0.25152   1.000
    N10     N    0.50106   0.17547   0.99922   1.000
    N11     N    0.00106   0.17547   0.99922   1.000
    N12     N    0.82702   0.00030   0.25152   1.000
    N13     N    0.82702   0.50030   0.25152   1.000
    N14     N    0.32703   0.00030   0.25152   1.000
    N15     N    0.00098   0.67547   0.99922   1.000
    Zr16    Zr   0.56323   0.93768   0.12761   1.000
    O17     O    0.64107   0.95589   0.16760   1.000
    O18     O    0.54519   0.86041   0.08595   1.000
    O19     O    0.54570   0.01030   0.09946   1.000
    O20     O    0.59920   0.95620   0.01731   1.000
    O21     O    0.54488   0.90084   0.23705   1.000
    O22     O    0.49112   0.95523   0.15459   1.000
    Zr23    Zr   0.06230   0.06280   0.37457   1.000
    O24     O    0.99043   0.04522   0.34806   1.000
    O25     O    0.09866   0.04509   0.48469   1.000
    O26     O    0.04393   0.14028   0.41570   1.000
    O27     O    0.04473   0.09973   0.26474   1.000
    O28     O    0.04466   0.99031   0.40223   1.000
    O29     O    0.14045   0.04455   0.33494   1.000
    Zr30    Zr   0.93813   0.93919   0.87314   1.000
    O31     O    0.95600   0.01143   0.90017   1.000
    O32     O    0.00997   0.95651   0.84700   1.000
    O33     O    0.95635   0.86145   0.91426   1.000
    O34     O    0.90207   0.95718   0.98395   1.000
    O35     O    0.85993   0.95740   0.83395   1.000
    O36     O    0.95548   0.91295   0.75442   1.000
    O37     O    0.95558   0.90150   0.76485   1.000
    Zr38    Zr   0.56323   0.43769   0.12761   1.000
    O39     O    0.54570   0.51030   0.09946   1.000
    O40     O    0.59920   0.45621   0.01732   1.000
    O41     O    0.64107   0.45590   0.16760   1.000
    O42     O    0.54519   0.36041   0.08595   1.000
    O43     O    0.49112   0.45523   0.15459   1.000
    O44     O    0.54489   0.40084   0.23705   1.000
    Zr45    Zr   0.43776   0.06227   0.62802   1.000
    O46     O    0.45610   0.09970   0.73623   1.000
    O47     O    0.40160   0.04412   0.51777   1.000
    O48     O    0.45524   0.98988   0.60122   1.000
    O49     O    0.35970   0.04480   0.66771   1.000
    O50     O    0.50968   0.04512   0.65421   1.000
    O51     O    0.45544   0.13983   0.58675   1.000
    O52     O    0.45576   0.08836   0.74697   1.000
    Zr53    Zr   0.43775   0.56226   0.62802   1.000
    O54     O    0.35970   0.54479   0.66771   1.000
    O55     O    0.45610   0.59969   0.73623   1.000
    O56     O    0.45576   0.58835   0.74697   1.000
    O57     O    0.50968   0.54512   0.65421   1.000
    O58     O    0.40159   0.54411   0.51777   1.000
    O59     O    0.45524   0.48988   0.60122   1.000
    O60     O    0.45543   0.63983   0.58675   1.000
    Zr61    Zr   0.43814   0.43919   0.87314   1.000
    O62     O    0.45600   0.51144   0.90017   1.000
    O63     O    0.35994   0.45741   0.83395   1.000
    O64     O    0.50998   0.45651   0.84700   1.000
    O65     O    0.40208   0.45719   0.98395   1.000
    O66     O    0.45549   0.41296   0.75442   1.000
    O67     O    0.45559   0.40151   0.76485   1.000
    O68     O    0.45638   0.36146   0.91426   1.000
    Zr69    Zr   0.93813   0.43919   0.87314   1.000
    O70     O    0.95637   0.36145   0.91426   1.000
    O71     O    0.95598   0.51144   0.90017   1.000
    O72     O    0.00997   0.45651   0.84700   1.000
    O73     O    0.85993   0.45741   0.83396   1.000
    O74     O    0.95558   0.40151   0.76485   1.000
    O75     O    0.95548   0.41296   0.75442   1.000
    O76     O    0.90207   0.45719   0.98395   1.000
    Zr77    Zr   0.06324   0.93768   0.12761   1.000
    O78     O    0.04571   0.01030   0.09946   1.000
    O79     O    0.04517   0.86041   0.08595   1.000
    O80     O    0.99112   0.95523   0.15459   1.000
    O81     O    0.09920   0.95620   0.01731   1.000
    O82     O    0.04489   0.90084   0.23705   1.000
    O83     O    0.14108   0.95589   0.16760   1.000
    Zr84    Zr   0.06324   0.43769   0.12761   1.000
    O85     O    0.04519   0.36041   0.08594   1.000
    O86     O    0.09920   0.45621   0.01731   1.000
    O87     O    0.04569   0.51030   0.09946   1.000
    O88     O    0.99112   0.45523   0.15459   1.000
    O89     O    0.04489   0.40084   0.23705   1.000
    O90     O    0.14108   0.45590   0.16760   1.000
    Zr91    Zr   0.93775   0.56226   0.62802   1.000
    O92     O    0.90159   0.54411   0.51777   1.000
    O93     O    0.95607   0.59969   0.73623   1.000
    O94     O    0.95573   0.58835   0.74697   1.000
    O95     O    0.85969   0.54479   0.66771   1.000
    O96     O    0.95543   0.63983   0.58675   1.000
    O97     O    0.95524   0.48988   0.60122   1.000
    O98     O    0.00968   0.54512   0.65421   1.000
    Zr99    Zr   0.93775   0.06227   0.62802   1.000
    O100    O    0.95610   0.09970   0.73623   1.000
    O101    O    0.00968   0.04512   0.65421   1.000
    O102    O    0.90159   0.04412   0.51777   1.000
    O103    O    0.85969   0.04480   0.66771   1.000
    O104    O    0.95543   0.13983   0.58675   1.000
    O105    O    0.95576   0.08836   0.74697   1.000
    O106    O    0.95524   0.98988   0.60122   1.000
    Zr107   Zr   0.56229   0.56279   0.37457   1.000
    O108    O    0.64045   0.54454   0.33494   1.000
    O109    O    0.54473   0.59972   0.26474   1.000
    O110    O    0.54392   0.64027   0.41570   1.000
    O111    O    0.59865   0.54509   0.48470   1.000
    O112    O    0.54465   0.49030   0.40223   1.000
    O113    O    0.49042   0.54521   0.34806   1.000
    Zr114   Zr   0.56229   0.06280   0.37457   1.000
    O115    O    0.54465   0.99031   0.40223   1.000
    O116    O    0.64045   0.04455   0.33494   1.000
    O117    O    0.59866   0.04509   0.48470   1.000
    O118    O    0.54392   0.14028   0.41570   1.000
    O119    O    0.49043   0.04522   0.34806   1.000
    O120    O    0.54473   0.09973   0.26474   1.000
    Zr121   Zr   0.06230   0.56279   0.37457   1.000
    O122    O    0.04471   0.59972   0.26474   1.000
    O123    O    0.09866   0.54508   0.48470   1.000
    O124    O    0.99043   0.54521   0.34806   1.000
    O125    O    0.14045   0.54454   0.33494   1.000
    O126    O    0.04466   0.49030   0.40223   1.000
    O127    O    0.04392   0.64027   0.41569   1.000
    Zr128   Zr   0.43814   0.93919   0.87314   1.000
    O129    O    0.40208   0.95718   0.98395   1.000
    O130    O    0.50997   0.95651   0.84700   1.000
    O131    O    0.45637   0.86145   0.91426   1.000
    O132    O    0.35994   0.95740   0.83395   1.000
    O133    O    0.45600   0.01143   0.90017   1.000
    O134    O    0.45548   0.91295   0.75442   1.000
    O135    O    0.45559   0.90150   0.76485   1.000
loop_
    _geom_bond_atom_site_label_1
    _geom_bond_atom_site_label_2
    _geom_bond_distance
    _geom_bond_site_symmetry_2
    _ccdc_geom_bond_type
    Zr16   O17       1.75364      .   S
    N12    O17       4.14364  1_545   S
    Zr16   O18       1.74459      .   S
    N5     O18       4.12184  1_556   S
    Zr16   O19       1.59166  1_565   S
    N10    O19       3.80029  1_556   S
    Zr16   O20       1.76052      .   S
    N8     O20       4.14973  1_546   S
    Zr16   O21       1.75541      .   S
    N4     O21       4.13638      .   S
    Zr16   O22       1.58394      .   S
    N14    O22       3.77940  1_545   S
    Zr23   O24       1.58178  1_455   S
    N12    O24       3.77416      .   S
    Zr23   O25       1.75847      .   S
    N6     O25       4.14511      .   S
    Zr23   O26       1.74429      .   S
    N1     O26       4.11839  1_655   S
    Zr23   O27       1.75692      .   S
    N11    O27       4.14000  1_556   S
    Zr23   O28       1.59080  1_545   S
    N2     O28       3.79983  1_655   S
    Zr23   O29       1.75382      .   S
    N14    O29       4.14283      .   S
    Zr30   O31       1.58720  1_565   S
    N11    O31       3.78941  1_455   S
    Zr30   O32       1.57737  1_655   S
    N6     O32       3.76789  1_545   S
    Zr30   O33       1.74576      .   S
    N15    O33       4.12329  1_455   S
    Zr30   O34       1.76577      .   S
    N12    O34       4.16292  1_544   S
    Zr30   O35       1.75320      .   S
    N8     O35       4.14015  1_545   S
    Zr30   O36       1.79013      .   S
    N2     O36       4.08628      .   S
    Zr30   O37       1.74723      .   S
    N2     O37       4.11743      .   S
    Zr38   O39       1.59156      .   S
    N5     O39       3.80013  1_556   S
    Zr38   O40       1.76044      .   S
    N0     O40       4.14951  1_556   S
    Zr38   O41       1.75362      .   S
    N13    O41       4.14358      .   S
    Zr38   O42       1.74458      .   S
    N10    O42       4.12184  1_556   S
    Zr38   O43       1.58394      .   S
    N9     O43       3.77938      .   S
    Zr38   O44       1.75541      .   S
    N3     O44       4.13638      .   S
    Zr45   O46       1.75007      .   S
    N10    O46       4.12498      .   S
    Zr45   O47       1.76335      .   S
    N14    O47       4.15198      .   S
    Zr45   O48       1.58413  1_545   S
    N4     O48       3.78491      .   S
    Zr45   O49       1.75124      .   S
    N6     O49       4.13834      .   S
    Zr45   O50       1.57636      .   S
    N8     O50       3.76620      .   S
    Zr45   O51       1.74347      .   S
    N3     O51       4.12099      .   S
    Zr45   O52       1.79687      .   S
    N10    O52       4.09038      .   S
    Zr53   O54       1.75125      .   S
    N7     O54       4.13837      .   S
    Zr53   O55       1.75007      .   S
    N5     O55       4.12499      .   S
    Zr53   O56       1.79687      .   S
    N5     O56       4.09039      .   S
    Zr53   O57       1.57637      .   S
    N0     O57       3.76627      .   S
    Zr53   O58       1.76334      .   S
    N9     O58       4.15196      .   S
    Zr53   O59       1.58403      .   S
    N3     O59       3.78475      .   S
    Zr53   O60       1.74348      .   S
    N4     O60       4.12099      .   S
    Zr61   O62       1.58708      .   S
    N5     O62       3.78923      .   S
    Zr61   O63       1.75318      .   S
    N7     O63       4.14008      .   S
    Zr61   O64       1.57723      .   S
    N0     O64       3.76758      .   S
    Zr61   O65       1.76575      .   S
    N9     O65       4.16285  1_554   S
    Zr61   O66       1.79010      .   S
    N3     O66       4.08619      .   S
    Zr61   O67       1.74720      .   S
    N3     O67       4.11734      .   S
    Zr61   O68       1.74585      .   S
    N10    O68       4.12356      .   S
    Zr69   O70       1.74585      .   S
    N11    O70       4.12356  1_455   S
    Zr69   O71       1.58700      .   S
    N15    O71       3.78894  1_455   S
    Zr69   O72       1.57734  1_655   S
    N7     O72       3.76778      .   S
    Zr69   O73       1.75317      .   S
    N0     O73       4.14007      .   S
    Zr69   O74       1.74720      .   S
    N1     O74       4.11737      .   S
    Zr69   O75       1.79011      .   S
    N1     O75       4.08622      .   S
    Zr69   O76       1.76575      .   S
    N13    O76       4.16285  1_554   S
    Zr77   O78       1.59168  1_565   S
    N11    O78       3.80034  1_556   S
    Zr77   O79       1.74469      .   S
    N15    O79       4.12216  1_556   S
    Zr77   O80       1.58406  1_455   S
    N12    O80       3.77959  1_545   S
    Zr77   O81       1.76052      .   S
    N6     O81       4.14976  1_546   S
    Zr77   O82       1.75540      .   S
    N2     O82       4.13634  1_655   S
    Zr77   O83       1.75363      .   S
    N14    O83       4.14362  1_545   S
    Zr84   O85       1.74466      .   S
    N11    O85       4.12183  1_556   S
    Zr84   O86       1.76045      .   S
    N7     O86       4.14954  1_556   S
    Zr84   O87       1.59167      .   S
    N15    O87       3.80046  1_556   S
    Zr84   O88       1.58405  1_455   S
    N13    O88       3.77955      .   S
    Zr84   O89       1.75541      .   S
    N1     O89       4.13640  1_655   S
    Zr84   O90       1.75362      .   S
    N9     O90       4.14358      .   S
    Zr91   O92       1.76334      .   S
    N13    O92       4.15196      .   S
    Zr91   O93       1.74998      .   S
    N15    O93       4.12470  1_455   S
    Zr91   O94       1.79678      .   S
    N15    O94       4.09009  1_455   S
    Zr91   O95       1.75126      .   S
    N0     O95       4.13838      .   S
    Zr91   O96       1.74349      .   S
    N2     O96       4.12104      .   S
    Zr91   O97       1.58404      .   S
    N1     O97       3.78478      .   S
    Zr91   O98       1.57648  1_655   S
    N7     O98       3.76642      .   S
    Zr99   O100      1.75006      .   S
    N11    O100      4.12495  1_455   S
    Zr99   O101      1.57646  1_655   S
    N6     O101      3.76635      .   S
    Zr99   O102      1.76333      .   S
    N12    O102      4.15194      .   S
    Zr99   O103      1.75124      .   S
    N8     O103      4.13835      .   S
    Zr99   O104      1.74349      .   S
    N1     O104      4.12102      .   S
    Zr99   O105      1.79686      .   S
    N11    O105      4.09036  1_455   S
    Zr99   O106      1.58415  1_545   S
    N2     O106      3.78497      .   S
    Zr107  O108      1.75383      .   S
    N13    O108      4.14283      .   S
    Zr107  O109      1.75689      .   S
    N5     O109      4.13991  1_556   S
    Zr107  O110      1.74429      .   S
    N4     O110      4.11837      .   S
    Zr107  O111      1.75854      .   S
    N0     O111      4.14531      .   S
    Zr107  O112      1.59069      .   S
    N3     O112      3.79965      .   S
    Zr107  O113      1.58166      .   S
    N9     O113      3.77397      .   S
    Zr114  O115      1.59080  1_545   S
    N4     O115      3.79983      .   S
    Zr114  O116      1.75382      .   S
    N12    O116      4.14282      .   S
    Zr114  O117      1.75848      .   S
    N8     O117      4.14514      .   S
    Zr114  O118      1.74429      .   S
    N3     O118      4.11837      .   S
    Zr114  O119      1.58167      .   S
    N14    O119      3.77400      .   S
    Zr114  O120      1.75689      .   S
    N10    O120      4.13992  1_556   S
    Zr121  O122      1.75700      .   S
    N15    O122      4.14024  1_556   S
    Zr121  O123      1.75853      .   S
    N7     O123      4.14528      .   S
    Zr121  O124      1.58177  1_455   S
    N13    O124      3.77414      .   S
    Zr121  O125      1.75382      .   S
    N9     O125      4.14282      .   S
    Zr121  O126      1.59070      .   S
    N1     O126      3.79969  1_655   S
    Zr121  O127      1.74428      .   S
    N2     O127      4.11836  1_655   S
    Zr128  O129      1.76575      .   S
    N14    O129      4.16287  1_544   S
    Zr128  O130      1.57726      .   S
    N8     O130      3.76771  1_545   S
    Zr128  O131      1.74585      .   S
    N5     O131      4.12355      .   S
    Zr128  O132      1.75319      .   S
    N6     O132      4.14017  1_545   S
    Zr128  O133      1.58720  1_565   S
    N10    O133      3.78941      .   S
    Zr128  O134      1.79010      .   S
    N4     O134      4.08618      .   S
    Zr128  O135      1.74719      .   S
    N4     O135      4.11733      .   S
