# CIF file generated by openbabel 2.4.90, see http://openbabel.sf.net
data_I
_chemical_name_common ''
_cell_length_a 14.609
_cell_length_b 21.986
_cell_length_c 21.972
_cell_angle_alpha 60.764
_cell_angle_beta 90.014
_cell_angle_gamma 89.993
_space_group_name_H-M_alt 'P 1'
_space_group_name_Hall 'P 1'
loop_
    _symmetry_equiv_pos_as_xyz
    x,y,z
loop_
    _atom_site_label
    _atom_site_type_symbol
    _atom_site_fract_x
    _atom_site_fract_y
    _atom_site_fract_z
    _atom_site_occupancy
    C0      C    0.99984   0.99968   0.50010   1.000
    C1      C    0.49986   0.99968   0.50010   1.000
    C2      C    0.25017   0.99969   0.50009   1.000
    C3      C    0.75018   0.99969   0.50009   1.000
    C4      C    0.24994   0.50191   0.00000   1.000
    C5      C    0.74995   0.50191   0.00000   1.000
    C6      C    0.00014   0.50184   0.00000   1.000
    C7      C    0.50015   0.50184   0.00000   1.000
    C8      C    0.00005   0.99806   0.00240   1.000
    C9      C    0.50006   0.99806   0.00247   1.000
    C10     C    0.24993   0.99795   0.00256   1.000
    C11     C    0.74994   0.99794   0.00256   1.000
    C12     C    0.22806   0.79861   0.68632   1.000
    C13     C    0.72807   0.79861   0.68632   1.000
    C14     C    0.02199   0.96678   0.32300   1.000
    C15     C    0.52200   0.96678   0.32304   1.000
    C16     C    0.02200   0.96234   0.21074   1.000
    C17     C    0.52202   0.96234   0.21074   1.000
    C18     C    0.47808   0.20255   0.31522   1.000
    C19     C    0.97809   0.20255   0.31522   1.000
    C20     C    0.27190   0.03072   0.67836   1.000
    C21     C    0.77191   0.03072   0.67836   1.000
    C22     C    0.27192   0.03351   0.79123   1.000
    C23     C    0.77194   0.03351   0.79123   1.000
    C24     C    0.02182   0.68498   0.79890   1.000
    C25     C    0.52183   0.68498   0.79890   1.000
    C26     C    0.22804   0.32268   0.96821   1.000
    C27     C    0.72805   0.32269   0.96821   1.000
    C28     C    0.22804   0.20996   0.96567   1.000
    C29     C    0.72805   0.20996   0.96567   1.000
    C30     C    0.27193   0.31550   0.20295   1.000
    C31     C    0.77194   0.31550   0.20295   1.000
    C32     C    0.47788   0.67896   0.03192   1.000
    C33     C    0.97789   0.67897   0.03192   1.000
    C34     C    0.47803   0.79060   0.03743   1.000
    C35     C    0.97804   0.79060   0.03743   1.000
    C36     C    0.27187   0.20213   0.31507   1.000
    C37     C    0.77188   0.20213   0.31507   1.000
    C38     C    0.47813   0.03110   0.67810   1.000
    C39     C    0.97814   0.03110   0.67810   1.000
    C40     C    0.47807   0.03390   0.79097   1.000
    C41     C    0.97809   0.03390   0.79097   1.000
    C42     C    0.02198   0.79747   0.68557   1.000
    C43     C    0.52199   0.79747   0.68557   1.000
    C44     C    0.22809   0.96696   0.32289   1.000
    C45     C    0.72811   0.96696   0.32280   1.000
    C46     C    0.22810   0.96251   0.21060   1.000
    C47     C    0.72811   0.96250   0.21060   1.000
    C48     C    0.47814   0.31596   0.20313   1.000
    C49     C    0.97815   0.31596   0.20313   1.000
    C50     C    0.27182   0.67775   0.03391   1.000
    C51     C    0.77184   0.67775   0.03391   1.000
    C52     C    0.27192   0.78947   0.03929   1.000
    C53     C    0.77194   0.78947   0.03928   1.000
    C54     C    0.22802   0.68621   0.79970   1.000
    C55     C    0.72803   0.68621   0.79970   1.000
    C56     C    0.02184   0.32228   0.96883   1.000
    C57     C    0.52185   0.32228   0.96880   1.000
    C58     C    0.02175   0.20961   0.96620   1.000
    C59     C    0.52177   0.20961   0.96620   1.000
    C60     C    0.37533   0.45796   0.10071   1.000
    C61     C    0.87535   0.45796   0.10071   1.000
    C62     C    0.12507   0.89977   0.54029   1.000
    C63     C    0.62509   0.89977   0.54029   1.000
    C64     C    0.37497   0.09981   0.45949   1.000
    C65     C    0.87498   0.09980   0.45949   1.000
    C66     C    0.12536   0.46390   0.93737   1.000
    C67     C    0.62538   0.46390   0.93737   1.000
    C68     C    0.12505   0.08092   0.00991   1.000
    C69     C    0.62506   0.08092   0.00991   1.000
    C70     C    0.37494   0.98953   0.92014   1.000
    C71     C    0.87496   0.98954   0.92014   1.000
    C72     C    0.29199   0.77312   0.71114   1.000
    C73     C    0.79200   0.77313   0.71114   1.000
    C74     C    0.45819   0.96555   0.29803   1.000
    C75     C    0.95821   0.96554   0.29800   1.000
    C76     C    0.45821   0.96291   0.23600   1.000
    C77     C    0.95823   0.96292   0.23607   1.000
    C78     C    0.04204   0.22805   0.29057   1.000
    C79     C    0.54205   0.22805   0.29057   1.000
    C80     C    0.20806   0.03166   0.70340   1.000
    C81     C    0.70808   0.03166   0.70346   1.000
    C82     C    0.20796   0.03311   0.76602   1.000
    C83     C    0.70797   0.03311   0.76602   1.000
    C84     C    0.45802   0.71026   0.77358   1.000
    C85     C    0.95804   0.71025   0.77358   1.000
    C86     C    0.29200   0.29777   0.96727   1.000
    C87     C    0.79202   0.29776   0.96720   1.000
    C88     C    0.29201   0.23512   0.96606   1.000
    C89     C    0.79203   0.23513   0.96605   1.000
    C90     C    0.20795   0.29064   0.22824   1.000
    C91     C    0.70797   0.29064   0.22824   1.000
    C92     C    0.04171   0.70346   0.03390   1.000
    C93     C    0.54173   0.70347   0.03394   1.000
    C94     C    0.04178   0.76509   0.03712   1.000
    C95     C    0.54179   0.76509   0.03713   1.000
    C96     C    0.20793   0.22781   0.29048   1.000
    C97     C    0.70794   0.22781   0.29048   1.000
    C98     C    0.04194   0.03188   0.70332   1.000
    C99     C    0.54195   0.03188   0.70332   1.000
    C100    C    0.04203   0.03333   0.76588   1.000
    C101    C    0.54205   0.03333   0.76588   1.000
    C102    C    0.45800   0.77248   0.71071   1.000
    C103    C    0.95802   0.77248   0.71070   1.000
    C104    C    0.29190   0.96565   0.29795   1.000
    C105    C    0.79192   0.96564   0.29795   1.000
    C106    C    0.29189   0.96300   0.23600   1.000
    C107    C    0.79191   0.96301   0.23599   1.000
    C108    C    0.04208   0.29090   0.22834   1.000
    C109    C    0.54209   0.29090   0.22834   1.000
    C110    C    0.20802   0.70279   0.03500   1.000
    C111    C    0.70804   0.70279   0.03505   1.000
    C112    C    0.20809   0.76445   0.03818   1.000
    C113    C    0.70811   0.76445   0.03818   1.000
    C114    C    0.29187   0.71094   0.77404   1.000
    C115    C    0.79188   0.71094   0.77400   1.000
    C116    C    0.45787   0.29754   0.96761   1.000
    C117    C    0.95789   0.29753   0.96762   1.000
    C118    C    0.45782   0.23493   0.96637   1.000
    C119    C    0.95783   0.23493   0.96636   1.000
    C120    C    0.37505   0.87247   0.61233   1.000
    C121    C    0.87507   0.87247   0.61230   1.000
    C122    C    0.37502   0.80445   0.67903   1.000
    C123    C    0.87504   0.80445   0.67903   1.000
    C124    C    0.37503   0.97360   0.39400   1.000
    C125    C    0.87504   0.97360   0.39000   1.000
    C126    C    0.37504   0.96745   0.32904   1.000
    C127    C    0.87506   0.96745   0.32904   1.000
    C128    C    0.37506   0.96222   0.20442   1.000
    C129    C    0.87507   0.96222   0.20442   1.000
    C130    C    0.37505   0.96444   0.13527   1.000
    C131    C    0.87506   0.96444   0.13527   1.000
    C132    C    0.12496   0.12733   0.38830   1.000
    C133    C    0.62497   0.12733   0.38830   1.000
    C134    C    0.12497   0.19595   0.32214   1.000
    C135    C    0.62498   0.19595   0.32214   1.000
    C136    C    0.12501   0.02556   0.60632   1.000
    C137    C    0.62502   0.02556   0.60632   1.000
    C138    C    0.12500   0.03043   0.67203   1.000
    C139    C    0.62502   0.03043   0.67203   1.000
    C140    C    0.12499   0.03339   0.79806   1.000
    C141    C    0.62500   0.03338   0.79806   1.000
    C142    C    0.12497   0.03054   0.86762   1.000
    C143    C    0.62499   0.03054   0.86762   1.000
    C144    C    0.37484   0.61325   0.87445   1.000
    C145    C    0.87486   0.61325   0.87445   1.000
    C146    C    0.37492   0.67923   0.80573   1.000
    C147    C    0.87493   0.67923   0.80573   1.000
    C148    C    0.37509   0.39511   0.97311   1.000
    C149    C    0.87510   0.39511   0.97311   1.000
    C150    C    0.37495   0.32927   0.96853   1.000
    C151    C    0.87496   0.32927   0.96853   1.000
    C152    C    0.37490   0.20289   0.96611   1.000
    C153    C    0.87492   0.20289   0.96610   1.000
    C154    C    0.37493   0.13317   0.96922   1.000
    C155    C    0.87494   0.13317   0.96923   1.000
    C156    C    0.12512   0.38969   0.12864   1.000
    C157    C    0.62513   0.38969   0.12864   1.000
    C158    C    0.12503   0.32276   0.19666   1.000
    C159    C    0.62505   0.32276   0.19666   1.000
    C160    C    0.12481   0.60787   0.02541   1.000
    C161    C    0.62482   0.60787   0.02541   1.000
    C162    C    0.12484   0.67226   0.03236   1.000
    C163    C    0.62486   0.67226   0.03236   1.000
    C164    C    0.12497   0.79622   0.03866   1.000
    C165    C    0.62499   0.79622   0.03866   1.000
    C166    C    0.12505   0.86520   0.03674   1.000
    C167    C    0.62506   0.86520   0.03674   1.000
    C168    C    0.45299   0.89873   0.58676   1.000
    C169    C    0.95300   0.89873   0.58676   1.000
    C170    C    0.45310   0.97615   0.41865   1.000
    C171    C    0.95312   0.97615   0.41865   1.000
    C172    C    0.45295   0.96589   0.10844   1.000
    C173    C    0.95296   0.96589   0.10844   1.000
    C174    C    0.20293   0.10099   0.41350   1.000
    C175    C    0.70295   0.10099   0.41350   1.000
    C176    C    0.20309   0.02351   0.58149   1.000
    C177    C    0.70310   0.02351   0.58149   1.000
    C178    C    0.20301   0.02888   0.89460   1.000
    C179    C    0.70303   0.02888   0.89460   1.000
    C180    C    0.29685   0.58897   0.90126   1.000
    C181    C    0.79687   0.58897   0.90126   1.000
    C182    C    0.29714   0.42067   0.97440   1.000
    C183    C    0.79716   0.42067   0.97444   1.000
    C184    C    0.29690   0.10632   0.97090   1.000
    C185    C    0.79691   0.10632   0.97090   1.000
    C186    C    0.04712   0.41550   0.10270   1.000
    C187    C    0.54713   0.41550   0.10270   1.000
    C188    C    0.04685   0.58401   0.02137   1.000
    C189    C    0.54687   0.58401   0.02137   1.000
    C190    C    0.04716   0.89205   0.03529   1.000
    C191    C    0.54718   0.89205   0.03520   1.000
    C192    C    0.04701   0.10100   0.41355   1.000
    C193    C    0.54702   0.10100   0.41355   1.000
    C194    C    0.04692   0.02363   0.58141   1.000
    C195    C    0.54693   0.02363   0.58141   1.000
    C196    C    0.04694   0.02910   0.89448   1.000
    C197    C    0.54695   0.02910   0.89448   1.000
    C198    C    0.29711   0.89876   0.58673   1.000
    C199    C    0.79713   0.89876   0.58673   1.000
    C200    C    0.29696   0.97618   0.41861   1.000
    C201    C    0.79697   0.97618   0.41861   1.000
    C202    C    0.29711   0.96584   0.10848   1.000
    C203    C    0.79712   0.96584   0.10848   1.000
    C204    C    0.20323   0.41479   0.10241   1.000
    C205    C    0.70325   0.41479   0.10241   1.000
    C206    C    0.20269   0.58260   0.02367   1.000
    C207    C    0.70270   0.58260   0.02367   1.000
    C208    C    0.20297   0.89185   0.03558   1.000
    C209    C    0.70298   0.89185   0.03558   1.000
    C210    C    0.45272   0.58731   0.90013   1.000
    C211    C    0.95274   0.58731   0.90013   1.000
    C212    C    0.45326   0.41961   0.97580   1.000
    C213    C    0.95327   0.41961   0.97580   1.000
    C214    C    0.45301   0.10637   0.97087   1.000
    C215    C    0.95303   0.10637   0.97087   1.000
    C216    C    0.37500   0.05202   0.49790   1.000
    C217    C    0.87501   0.05202   0.49790   1.000
    C218    C    0.12502   0.94779   0.50232   1.000
    C219    C    0.62504   0.94779   0.50232   1.000
    C220    C    0.37514   0.49698   0.05323   1.000
    C221    C    0.87516   0.49698   0.05323   1.000
    C222    C    0.12513   0.50116   0.94933   1.000
    C223    C    0.62514   0.50116   0.94933   1.000
    C224    C    0.37501   0.97150   0.97044   1.000
    C225    C    0.87503   0.97150   0.97044   1.000
    C226    C    0.12500   0.03053   0.02880   1.000
    C227    C    0.62502   0.03053   0.02880   1.000
    O228    O    0.27339   0.54544   0.95063   1.000
    O229    O    0.18753   0.50153   0.97466   1.000
    O230    O    0.77341   0.54544   0.95063   1.000
    O231    O    0.68755   0.50153   0.97466   1.000
    O232    O    0.02349   0.54292   0.01068   1.000
    O233    O    0.93765   0.49941   0.02661   1.000
    O234    O    0.52351   0.54292   0.01068   1.000
    O235    O    0.43765   0.49941   0.02661   1.000
    O236    O    0.02361   0.94505   0.01884   1.000
    O237    O    0.93754   0.98478   0.98642   1.000
    O238    O    0.56254   0.01429   0.01563   1.000
    O239    O    0.52362   0.94505   0.01883   1.000
    O240    O    0.43754   0.98478   0.98645   1.000
    O241    O    0.77353   0.98189   0.05552   1.000
    O242    O    0.18747   0.01423   0.01568   1.000
    O243    O    0.27352   0.98189   0.05552   1.000
    O244    O    0.12503   0.05572   0.01935   1.000
    O245    O    0.62504   0.05572   0.01935   1.000
    O246    O    0.08583   0.59594   0.02339   1.000
    O247    O    0.58584   0.59594   0.02339   1.000
    O248    O    0.16375   0.59524   0.02454   1.000
    O249    O    0.66376   0.59524   0.02454   1.000
    O250    O    0.12482   0.64006   0.02888   1.000
    O251    O    0.62484   0.64006   0.02888   1.000
    O252    O    0.00980   0.69121   0.03291   1.000
    O253    O    0.50980   0.69121   0.03293   1.000
    O254    O    0.08328   0.68786   0.03313   1.000
    O255    O    0.16643   0.68752   0.03368   1.000
    O256    O    0.58329   0.68786   0.03315   1.000
    O257    O    0.66645   0.68752   0.03370   1.000
    O258    O    0.04175   0.73428   0.03551   1.000
    O259    O    0.23992   0.69027   0.03445   1.000
    O260    O    0.73994   0.69027   0.03448   1.000
    O261    O    0.54176   0.73428   0.03553   1.000
    O262    O    0.20806   0.73362   0.03659   1.000
    O263    O    0.70807   0.73362   0.03661   1.000
    O264    O    0.58612   0.87862   0.03597   1.000
    O265    O    0.08610   0.87862   0.03601   1.000
    O266    O    0.16401   0.87852   0.03616   1.000
    O267    O    0.66402   0.87852   0.03616   1.000
    O268    O    0.62502   0.83071   0.03770   1.000
    O269    O    0.12501   0.83071   0.03770   1.000
    O270    O    0.00991   0.77785   0.03727   1.000
    O271    O    0.08337   0.78066   0.03789   1.000
    O272    O    0.50991   0.77785   0.03728   1.000
    O273    O    0.58339   0.78066   0.03789   1.000
    O274    O    0.66655   0.78033   0.03842   1.000
    O275    O    0.74002   0.77696   0.03873   1.000
    O276    O    0.16653   0.78034   0.03842   1.000
    O277    O    0.24001   0.77696   0.03873   1.000
    O278    O    0.87525   0.47747   0.07697   1.000
    O279    O    0.37524   0.47747   0.07697   1.000
    O280    O    0.66419   0.40224   0.11552   1.000
    O281    O    0.16417   0.40224   0.11552   1.000
    O282    O    0.08612   0.40259   0.11567   1.000
    O283    O    0.58613   0.40259   0.11567   1.000
    O284    O    0.41400   0.96517   0.12185   1.000
    O285    O    0.91401   0.96516   0.12185   1.000
    O286    O    0.33608   0.96514   0.12187   1.000
    O287    O    0.83609   0.96514   0.12187   1.000
    O288    O    0.62509   0.35623   0.16265   1.000
    O289    O    0.12508   0.35623   0.16265   1.000
    O290    O    0.37505   0.96333   0.16984   1.000
    O291    O    0.87507   0.96333   0.16984   1.000
    O292    O    0.16649   0.30670   0.21245   1.000
    O293    O    0.08355   0.30683   0.21250   1.000
    O294    O    0.66651   0.30670   0.21245   1.000
    O295    O    0.58357   0.30683   0.21250   1.000
    O296    O    0.23994   0.30307   0.21559   1.000
    O297    O    0.73995   0.30307   0.21559   1.000
    O298    O    0.01011   0.30343   0.21573   1.000
    O299    O    0.51012   0.30343   0.21573   1.000
    O300    O    0.83349   0.96262   0.22020   1.000
    O301    O    0.91665   0.96257   0.22024   1.000
    O302    O    0.41663   0.96257   0.22021   1.000
    O303    O    0.33347   0.96261   0.22021   1.000
    O304    O    0.76001   0.96276   0.22329   1.000
    O305    O    0.25999   0.96276   0.22330   1.000
    O306    O    0.99012   0.96263   0.22340   1.000
    O307    O    0.49011   0.96262   0.22337   1.000
    O308    O    0.20794   0.25923   0.25936   1.000
    O309    O    0.70795   0.25923   0.25936   1.000
    O310    O    0.54207   0.25947   0.25945   1.000
    O311    O    0.04206   0.25947   0.25945   1.000
    O312    O    0.79191   0.96433   0.26697   1.000
    O313    O    0.45820   0.96423   0.26701   1.000
    O314    O    0.29190   0.96433   0.26697   1.000
    O315    O    0.95822   0.96423   0.26703   1.000
    O316    O    0.23990   0.21497   0.30277   1.000
    O317    O    0.16645   0.21188   0.30631   1.000
    O318    O    0.73991   0.21497   0.30277   1.000
    O319    O    0.66646   0.21188   0.30631   1.000
    O320    O    0.01006   0.21530   0.30289   1.000
    O321    O    0.08350   0.21200   0.30635   1.000
    O322    O    0.51006   0.21530   0.30289   1.000
    O323    O    0.58352   0.21200   0.30635   1.000
    O324    O    0.26000   0.96631   0.31042   1.000
    O325    O    0.33347   0.96655   0.31349   1.000
    O326    O    0.76001   0.96630   0.31037   1.000
    O327    O    0.83349   0.96655   0.31349   1.000
    O328    O    0.99010   0.96616   0.31050   1.000
    O329    O    0.91663   0.96650   0.31352   1.000
    O330    O    0.49010   0.96617   0.31053   1.000
    O331    O    0.41662   0.96650   0.31353   1.000
    O332    O    0.62498   0.16164   0.35522   1.000
    O333    O    0.12496   0.16164   0.35522   1.000
    O334    O    0.37504   0.97053   0.36152   1.000
    O335    O    0.87505   0.97053   0.35952   1.000
    O336    O    0.66396   0.11416   0.40090   1.000
    O337    O    0.58600   0.11416   0.40092   1.000
    O338    O    0.16395   0.11416   0.40090   1.000
    O339    O    0.08598   0.11416   0.40092   1.000
    O340    O    0.83601   0.97489   0.40430   1.000
    O341    O    0.91408   0.97487   0.40432   1.000
    O342    O    0.33599   0.97489   0.40630   1.000
    O343    O    0.41407   0.97487   0.40632   1.000
    O344    O    0.27356   0.98793   0.45935   1.000
    O345    O    0.77358   0.98793   0.45935   1.000
    O346    O    0.47648   0.98791   0.45937   1.000
    O347    O    0.97648   0.98791   0.45937   1.000
    O348    O    0.87500   0.07591   0.47869   1.000
    O349    O    0.37498   0.07591   0.47869   1.000
    O350    O    0.31258   0.02585   0.49899   1.000
    O351    O    0.93743   0.02585   0.49900   1.000
    O352    O    0.68761   0.97374   0.50120   1.000
    O353    O    0.18759   0.97374   0.50120   1.000
    O354    O    0.62506   0.92378   0.52130   1.000
    O355    O    0.12505   0.92378   0.52130   1.000
    O356    O    0.58598   0.02459   0.59386   1.000
    O357    O    0.08596   0.02459   0.59386   1.000
    O358    O    0.66406   0.02453   0.59390   1.000
    O359    O    0.16405   0.02453   0.59390   1.000
    O360    O    0.83610   0.88561   0.59951   1.000
    O361    O    0.33608   0.88561   0.59953   1.000
    O362    O    0.91403   0.88560   0.59953   1.000
    O363    O    0.41402   0.88560   0.59954   1.000
    O364    O    0.62502   0.02799   0.63917   1.000
    O365    O    0.12501   0.02800   0.63917   1.000
    O366    O    0.87505   0.83846   0.64566   1.000
    O367    O    0.37504   0.83846   0.64568   1.000
    O368    O    0.08347   0.03116   0.68767   1.000
    O369    O    0.16653   0.03105   0.68771   1.000
    O370    O    0.58348   0.03116   0.68767   1.000
    O371    O    0.66655   0.03105   0.68774   1.000
    O372    O    0.01004   0.03149   0.69071   1.000
    O373    O    0.51004   0.03149   0.69071   1.000
    O374    O    0.73999   0.03119   0.69091   1.000
    O375    O    0.23998   0.03119   0.69088   1.000
    O376    O    0.41651   0.78847   0.69487   1.000
    O377    O    0.33351   0.78879   0.69508   1.000
    O378    O    0.91653   0.78847   0.69486   1.000
    O379    O    0.83352   0.78879   0.69508   1.000
    O380    O    0.49000   0.78498   0.69814   1.000
    O381    O    0.99000   0.78498   0.69813   1.000
    O382    O    0.76004   0.78587   0.69873   1.000
    O383    O    0.26002   0.78587   0.69873   1.000
    O384    O    0.04198   0.03261   0.73460   1.000
    O385    O    0.54200   0.03260   0.73460   1.000
    O386    O    0.20801   0.03239   0.73471   1.000
    O387    O    0.70802   0.03239   0.73474   1.000
    O388    O    0.95803   0.74137   0.74214   1.000
    O389    O    0.45801   0.74137   0.74214   1.000
    O390    O    0.29193   0.74203   0.74259   1.000
    O391    O    0.79194   0.74203   0.74257   1.000
    O392    O    0.01006   0.03362   0.77842   1.000
    O393    O    0.08351   0.03336   0.78197   1.000
    O394    O    0.51006   0.03362   0.77842   1.000
    O395    O    0.58353   0.03336   0.78197   1.000
    O396    O    0.23994   0.03331   0.77862   1.000
    O397    O    0.16647   0.03325   0.78204   1.000
    O398    O    0.73995   0.03331   0.77862   1.000
    O399    O    0.66649   0.03325   0.78204   1.000
    O400    O    0.98993   0.69762   0.78624   1.000
    O401    O    0.91648   0.69474   0.78965   1.000
    O402    O    0.48993   0.69762   0.78624   1.000
    O403    O    0.41647   0.69474   0.78965   1.000
    O404    O    0.75996   0.69858   0.78685   1.000
    O405    O    0.83341   0.69509   0.78986   1.000
    O406    O    0.25994   0.69858   0.78687   1.000
    O407    O    0.33339   0.69509   0.78988   1.000
    O408    O    0.12498   0.03196   0.83284   1.000
    O409    O    0.62500   0.03196   0.83284   1.000
    O410    O    0.37488   0.64624   0.84009   1.000
    O411    O    0.87489   0.64624   0.84009   1.000
    O412    O    0.58597   0.02982   0.88105   1.000
    O413    O    0.66401   0.02971   0.88111   1.000
    O414    O    0.08595   0.02982   0.88105   1.000
    O415    O    0.16399   0.02971   0.88111   1.000
    O416    O    0.91380   0.60028   0.88729   1.000
    O417    O    0.83586   0.60111   0.88785   1.000
    O418    O    0.41378   0.60028   0.88729   1.000
    O419    O    0.33585   0.60111   0.88785   1.000
    O420    O    0.37498   0.98052   0.94529   1.000
    O421    O    0.87499   0.98052   0.94529   1.000
    O422    O    0.12525   0.48253   0.94335   1.000
    O423    O    0.62526   0.48253   0.94335   1.000
    O424    O    0.26003   0.22254   0.96586   1.000
    O425    O    0.76004   0.22254   0.96586   1.000
    O426    O    0.83347   0.21901   0.96607   1.000
    O427    O    0.79202   0.26644   0.96662   1.000
    O428    O    0.33346   0.21901   0.96608   1.000
    O429    O    0.29201   0.26644   0.96666   1.000
    O430    O    0.91637   0.21891   0.96623   1.000
    O431    O    0.87493   0.16803   0.96766   1.000
    O432    O    0.41636   0.21891   0.96624   1.000
    O433    O    0.37492   0.16803   0.96766   1.000
    O434    O    0.98979   0.22227   0.96628   1.000
    O435    O    0.48979   0.22227   0.96628   1.000
    O436    O    0.95786   0.26623   0.96699   1.000
    O437    O    0.45784   0.26623   0.96699   1.000
    O438    O    0.76003   0.31022   0.96770   1.000
    O439    O    0.83349   0.31351   0.96786   1.000
    O440    O    0.26002   0.31022   0.96774   1.000
    O441    O    0.33348   0.31352   0.96790   1.000
    O442    O    0.41641   0.31340   0.96807   1.000
    O443    O    0.48986   0.30991   0.96820   1.000
    O444    O    0.91642   0.31340   0.96807   1.000
    O445    O    0.98986   0.30991   0.96822   1.000
    O446    O    0.37502   0.36219   0.97082   1.000
    O447    O    0.87503   0.36219   0.97082   1.000
    O448    O    0.41397   0.11977   0.97004   1.000
    O449    O    0.33591   0.11975   0.97006   1.000
    O450    O    0.91399   0.11977   0.97005   1.000
    O451    O    0.83593   0.11974   0.97006   1.000
    O452    O    0.83613   0.40789   0.97377   1.000
    O453    O    0.91419   0.40736   0.97445   1.000
    O454    O    0.33611   0.40789   0.97375   1.000
    O455    O    0.41417   0.40736   0.97445   1.000
    O456    O    0.47642   0.94920   0.54343   1.000
    O457    O    0.97642   0.94920   0.54343   1.000
    O458    O    0.47651   0.98198   0.05546   1.000
    O459    O    0.97651   0.98198   0.05542   1.000
    O460    O    0.22655   0.05034   0.45679   1.000
    O461    O    0.72656   0.05034   0.45679   1.000
    O462    O    0.22663   0.01160   0.54079   1.000
    O463    O    0.72664   0.01160   0.54079   1.000
    O464    O    0.22647   0.01341   0.94858   1.000
    O465    O    0.72649   0.01341   0.94858   1.000
    O466    O    0.27354   0.46129   0.98720   1.000
    O467    O    0.77355   0.46129   0.98722   1.000
    O468    O    0.27341   0.05213   0.98673   1.000
    O469    O    0.77343   0.05213   0.98673   1.000
    O470    O    0.02363   0.45867   0.05135   1.000
    O471    O    0.52364   0.45867   0.05135   1.000
    O472    O    0.02343   0.05034   0.45682   1.000
    O473    O    0.52344   0.05034   0.45682   1.000
    O474    O    0.02338   0.01166   0.54075   1.000
    O475    O    0.52340   0.01166   0.54075   1.000
    O476    O    0.02349   0.01358   0.94844   1.000
    O477    O    0.52351   0.01358   0.94847   1.000
    O478    O    0.27364   0.94922   0.54341   1.000
    O479    O    0.77365   0.94922   0.54341   1.000
    O480    O    0.22658   0.45835   0.05120   1.000
    O481    O    0.72660   0.45835   0.05120   1.000
    O482    O    0.22631   0.54225   0.01183   1.000
    O483    O    0.72633   0.54226   0.01183   1.000
    O484    O    0.22645   0.94490   0.01907   1.000
    O485    O    0.72646   0.94490   0.01907   1.000
    O486    O    0.47644   0.54458   0.95006   1.000
    O487    O    0.97644   0.54458   0.95006   1.000
    O488    O    0.47671   0.46073   0.98790   1.000
    O489    O    0.97671   0.46073   0.98790   1.000
    O490    O    0.47654   0.05222   0.98667   1.000
    O491    O    0.97654   0.05222   0.98663   1.000
    O492    O    0.43743   0.02585   0.49900   1.000
    O493    O    0.81260   0.02585   0.49899   1.000
    O494    O    0.06243   0.97374   0.50121   1.000
    O495    O    0.56245   0.97374   0.50121   1.000
    O496    O    0.31254   0.49945   0.02661   1.000
    O497    O    0.81255   0.49945   0.02661   1.000
    O498    O    0.06263   0.50150   0.97466   1.000
    O499    O    0.56265   0.50150   0.97466   1.000
    O500    O    0.31247   0.98472   0.98650   1.000
    O501    O    0.81249   0.98472   0.98650   1.000
    O502    O    0.06253   0.01429   0.01560   1.000
    O503    O    0.68748   0.01423   0.01568   1.000
loop_
    _geom_bond_atom_site_label_1
    _geom_bond_atom_site_label_2
    _geom_bond_distance
    _geom_bond_site_symmetry_2
    _ccdc_geom_bond_type
    C4     O228      1.09372  1_554   S
    C180   O228      1.09372      .   S
    C4     O229      1.07020  1_554   S
    C222   O229      1.07020      .   S
    C5     O230      1.09371  1_554   S
    C181   O230      1.09371      .   S
    C5     O231      1.07020  1_554   S
    C223   O231      1.07020      .   S
    C6     O232      1.09297      .   S
    C188   O232      1.09297      .   S
    C6     O233      1.07146  1_455   S
    C221   O233      1.07146      .   S
    C7     O234      1.09297      .   S
    C189   O234      1.09297      .   S
    C7     O235      1.07164      .   S
    C220   O235      1.07164      .   S
    C8     O236      1.09350      .   S
    C190   O236      1.09350      .   S
    C8     O237      1.06893  1_454   S
    C225   O237      1.06893      .   S
    C9     O238      1.07000  1_565   S
    C227   O238      1.07000      .   S
    C9     O239      1.09383      .   S
    C191   O239      1.09383      .   S
    C9     O240      1.06946  1_554   S
    C224   O240      1.06946      .   S
    C11    O241      1.09361      .   S
    C203   O241      1.09361      .   S
    C10    O242      1.07003  1_565   S
    C226   O242      1.07003      .   S
    C10    O243      1.09361      .   S
    C202   O243      1.09361      .   S
    C68    O244      0.48747      .   S
    C226   O244      0.48747      .   S
    C69    O245      0.48747      .   S
    C227   O245      0.48747      .   S
    C188   O246      0.63753      .   S
    C160   O246      0.63753      .   S
    C189   O247      0.63753      .   S
    C161   O247      0.63753      .   S
    C206   O248      0.63745      .   S
    C160   O248      0.63745      .   S
    C207   O249      0.63743      .   S
    C161   O249      0.63743      .   S
    C160   O250      0.74806      .   S
    C162   O250      0.74806      .   S
    C161   O251      0.74807      .   S
    C163   O251      0.74807      .   S
    C33    O252      0.54412  1_655   S
    C92    O252      0.54412      .   S
    C32    O253      0.54445      .   S
    C93    O253      0.54445      .   S
    C162   O254      0.70163      .   S
    C92    O254      0.70163      .   S
    C162   O255      0.70159      .   S
    C110   O255      0.70159      .   S
    C163   O256      0.70176      .   S
    C93    O256      0.70176      .   S
    C163   O257      0.70175      .   S
    C111   O257      0.70175      .   S
    C92    O258      0.69546      .   S
    C94    O258      0.69546      .   S
    C50    O259      0.54427      .   S
    C110   O259      0.54427      .   S
    C51    O260      0.54445      .   S
    C111   O260      0.54445      .   S
    C93    O261      0.69523      .   S
    C95    O261      0.69523      .   S
    C110   O262      0.69559      .   S
    C112   O262      0.69559      .   S
    C111   O263      0.69525      .   S
    C113   O263      0.69525      .   S
    C191   O264      0.63725      .   S
    C167   O264      0.63725      .   S
    C190   O265      0.63745      .   S
    C166   O265      0.63745      .   S
    C208   O266      0.63743      .   S
    C166   O266      0.63743      .   S
    C209   O267      0.63743      .   S
    C167   O267      0.63743      .   S
    C167   O268      0.74823      .   S
    C165   O268      0.74823      .   S
    C166   O269      0.74823      .   S
    C164   O269      0.74823      .   S
    C94    O270      0.54430      .   S
    C35    O270      0.54430  1_655   S
    C94    O271      0.70170      .   S
    C164   O271      0.70170      .   S
    C95    O272      0.54447      .   S
    C34    O272      0.54447      .   S
    C95    O273      0.70169      .   S
    C165   O273      0.70169      .   S
    C113   O274      0.70171      .   S
    C165   O274      0.70171      .   S
    C113   O275      0.54447      .   S
    C53    O275      0.54447      .   S
    C112   O276      0.70169      .   S
    C164   O276      0.70169      .   S
    C112   O277      0.54449      .   S
    C52    O277      0.54449      .   S
    C221   O278      0.48736      .   S
    C61    O278      0.48736      .   S
    C220   O279      0.48736      .   S
    C60    O279      0.48736      .   S
    C205   O280      0.63810      .   S
    C157   O280      0.63810      .   S
    C204   O281      0.63810      .   S
    C156   O281      0.63810      .   S
    C186   O282      0.63815      .   S
    C156   O282      0.63815      .   S
    C187   O283      0.63815      .   S
    C157   O283      0.63815      .   S
    C172   O284      0.63752      .   S
    C130   O284      0.63752      .   S
    C173   O285      0.63751      .   S
    C131   O285      0.63751      .   S
    C202   O286      0.63754      .   S
    C130   O286      0.63754      .   S
    C203   O287      0.63753      .   S
    C131   O287      0.63753      .   S
    C157   O288      0.75012      .   S
    C159   O288      0.75012      .   S
    C156   O289      0.75012      .   S
    C158   O289      0.75012      .   S
    C130   O290      0.74807      .   S
    C128   O290      0.74807      .   S
    C131   O291      0.74808      .   S
    C129   O291      0.74808      .   S
    C158   O292      0.70148      .   S
    C90    O292      0.70148      .   S
    C158   O293      0.70146      .   S
    C108   O293      0.70146      .   S
    C159   O294      0.70148      .   S
    C91    O294      0.70148      .   S
    C159   O295      0.70146      .   S
    C109   O295      0.70146      .   S
    C30    O296      0.54423      .   S
    C90    O296      0.54423      .   S
    C31    O297      0.54423      .   S
    C91    O297      0.54423      .   S
    C49    O298      0.54407  1_655   S
    C108   O298      0.54407      .   S
    C48    O299      0.54426      .   S
    C109   O299      0.54426      .   S
    C129   O300      0.70174      .   S
    C107   O300      0.70174      .   S
    C129   O301      0.70174      .   S
    C77    O301      0.70174      .   S
    C128   O302      0.70132      .   S
    C76    O302      0.70132      .   S
    C128   O303      0.70177      .   S
    C106   O303      0.70177      .   S
    C47    O304      0.54448      .   S
    C107   O304      0.54448      .   S
    C46    O305      0.54450      .   S
    C106   O305      0.54450      .   S
    C16    O306      0.54432  1_455   S
    C77    O306      0.54432      .   S
    C17    O307      0.54407      .   S
    C76    O307      0.54407      .   S
    C90    O308      0.69518      .   S
    C96    O308      0.69518      .   S
    C91    O309      0.69518      .   S
    C97    O309      0.69518      .   S
    C109   O310      0.69523      .   S
    C79    O310      0.69523      .   S
    C108   O311      0.69523      .   S
    C78    O311      0.69523      .   S
    C107   O312      0.69526      .   S
    C105   O312      0.69526      .   S
    C76    O313      0.69611      .   S
    C74    O313      0.69611      .   S
    C106   O314      0.69526      .   S
    C104   O314      0.69526      .   S
    C77    O315      0.69490      .   S
    C75    O315      0.69490      .   S
    C96    O316      0.54427      .   S
    C36    O316      0.54427      .   S
    C96    O317      0.70145      .   S
    C134   O317      0.70145      .   S
    C97    O318      0.54427      .   S
    C37    O318      0.54427      .   S
    C97    O319      0.70145      .   S
    C135   O319      0.70145      .   S
    C78    O320      0.54409      .   S
    C19    O320      0.54409  1_655   S
    C78    O321      0.70145      .   S
    C134   O321      0.70145      .   S
    C79    O322      0.54427      .   S
    C18    O322      0.54427      .   S
    C79    O323      0.70145      .   S
    C135   O323      0.70145      .   S
    C104   O324      0.54447      .   S
    C44    O324      0.54447      .   S
    C104   O325      0.70169      .   S
    C126   O325      0.70169      .   S
    C105   O326      0.54399      .   S
    C45    O326      0.54399      .   S
    C105   O327      0.70172      .   S
    C127   O327      0.70172      .   S
    C75    O328      0.54429      .   S
    C14    O328      0.54429  1_455   S
    C75    O329      0.70192      .   S
    C127   O329      0.70192      .   S
    C74    O330      0.54448      .   S
    C15    O330      0.54448      .   S
    C74    O331      0.70173      .   S
    C126   O331      0.70173      .   S
    C135   O332      0.74952      .   S
    C133   O332      0.74952      .   S
    C134   O333      0.74953      .   S
    C132   O333      0.74953      .   S
    C126   O334      0.74898      .   S
    C124   O334      0.74898      .   S
    C127   O335      0.70520      .   S
    C125   O335      0.70520      .   S
    C133   O336      0.63754      .   S
    C175   O336      0.63754      .   S
    C133   O337      0.63768      .   S
    C193   O337      0.63768      .   S
    C132   O338      0.63754      .   S
    C174   O338      0.63754      .   S
    C132   O339      0.63769      .   S
    C192   O339      0.63769      .   S
    C125   O340      0.65848      .   S
    C201   O340      0.65848      .   S
    C125   O341      0.65848      .   S
    C171   O341      0.65848      .   S
    C124   O342      0.63772      .   S
    C200   O342      0.63772      .   S
    C124   O343      0.63772      .   S
    C170   O343      0.63772      .   S
    C200   O344      1.10042      .   S
    C2     O344      1.10042      .   S
    C201   O345      1.10042      .   S
    C3     O345      1.10042      .   S
    C170   O346      1.10012      .   S
    C1     O346      1.10012      .   S
    C171   O347      1.10006      .   S
    C0     O347      1.10006      .   S
    C65    O348      0.48731      .   S
    C217   O348      0.48731      .   S
    C64    O349      0.48732      .   S
    C216   O349      0.48732      .   S
    C216   O350      1.07222      .   S
    C2     O350      1.07222  1_565   S
    C217   O351      1.07206      .   S
    C0     O351      1.07206  1_565   S
    C3     O352      1.07150      .   S
    C219   O352      1.07150      .   S
    C2     O353      1.07151      .   S
    C218   O353      1.07151      .   S
    C219   O354      0.48743      .   S
    C63    O354      0.48743      .   S
    C218   O355      0.48743      .   S
    C62    O355      0.48743      .   S
    C195   O356      0.63741      .   S
    C137   O356      0.63741      .   S
    C194   O357      0.63741      .   S
    C136   O357      0.63741      .   S
    C177   O358      0.63738      .   S
    C137   O358      0.63738      .   S
    C176   O359      0.63739      .   S
    C136   O359      0.63739      .   S
    C199   O360      0.63808      .   S
    C121   O360      0.63808      .   S
    C198   O361      0.63816      .   S
    C120   O361      0.63816      .   S
    C169   O362      0.63806      .   S
    C121   O362      0.63806      .   S
    C168   O363      0.63812      .   S
    C120   O363      0.63812      .   S
    C137   O364      0.74953      .   S
    C139   O364      0.74953      .   S
    C136   O365      0.74952      .   S
    C138   O365      0.74952      .   S
    C121   O366      0.74903      .   S
    C123   O366      0.74903      .   S
    C120   O367      0.74888      .   S
    C122   O367      0.74888      .   S
    C138   O368      0.70142      .   S
    C98    O368      0.70142      .   S
    C138   O369      0.70108      .   S
    C80    O369      0.70108      .   S
    C139   O370      0.70142      .   S
    C99    O370      0.70142      .   S
    C139   O371      0.70142      .   S
    C81    O371      0.70142      .   S
    C39    O372      0.54429  1_655   S
    C98    O372      0.54429      .   S
    C38    O373      0.54448      .   S
    C99    O373      0.54448      .   S
    C21    O374      0.54442      .   S
    C81    O374      0.54442      .   S
    C20    O375      0.54408      .   S
    C80    O375      0.54408      .   S
    C122   O376      0.70172      .   S
    C102   O376      0.70172      .   S
    C122   O377      0.70173      .   S
    C72    O377      0.70173      .   S
    C123   O378      0.70168      .   S
    C103   O378      0.70168      .   S
    C123   O379      0.70173      .   S
    C73    O379      0.70173      .   S
    C43    O380      0.54426      .   S
    C102   O380      0.54426      .   S
    C42    O381      0.54404  1_455   S
    C103   O381      0.54404      .   S
    C13    O382      0.54425      .   S
    C73    O382      0.54425      .   S
    C12    O383      0.54425      .   S
    C72    O383      0.54425      .   S
    C98    O384      0.69524      .   S
    C100   O384      0.69524      .   S
    C99    O385      0.69522      .   S
    C101   O385      0.69522      .   S
    C80    O386      0.69587      .   S
    C82    O386      0.69587      .   S
    C81    O387      0.69520      .   S
    C83    O387      0.69520      .   S
    C103   O388      0.69539      .   S
    C85    O388      0.69539      .   S
    C102   O389      0.69531      .   S
    C84    O389      0.69531      .   S
    C72    O390      0.69524      .   S
    C114   O390      0.69524      .   S
    C73    O391      0.69503      .   S
    C115   O391      0.69503      .   S
    C100   O392      0.54399      .   S
    C41    O392      0.54399  1_655   S
    C100   O393      0.70162      .   S
    C140   O393      0.70162      .   S
    C101   O394      0.54418      .   S
    C40    O394      0.54418      .   S
    C101   O395      0.70162      .   S
    C141   O395      0.70162      .   S
    C82    O396      0.54420      .   S
    C22    O396      0.54420      .   S
    C82    O397      0.70164      .   S
    C140   O397      0.70164      .   S
    C83    O398      0.54421      .   S
    C23    O398      0.54421      .   S
    C83    O399      0.70165      .   S
    C141   O399      0.70165      .   S
    C85    O400      0.54408      .   S
    C24    O400      0.54408  1_455   S
    C85    O401      0.70146      .   S
    C147   O401      0.70146      .   S
    C84    O402      0.54427      .   S
    C25    O402      0.54427      .   S
    C84    O403      0.70147      .   S
    C146   O403      0.70147      .   S
    C115   O404      0.54429      .   S
    C55    O404      0.54429      .   S
    C115   O405      0.70158      .   S
    C147   O405      0.70158      .   S
    C114   O406      0.54417      .   S
    C54    O406      0.54417      .   S
    C114   O407      0.70147      .   S
    C146   O407      0.70147      .   S
    C140   O408      0.74938      .   S
    C142   O408      0.74938      .   S
    C141   O409      0.74939      .   S
    C143   O409      0.74939      .   S
    C146   O410      0.74911      .   S
    C144   O410      0.74911      .   S
    C147   O411      0.74911      .   S
    C145   O411      0.74911      .   S
    C143   O412      0.63857      .   S
    C197   O412      0.63857      .   S
    C143   O413      0.63857      .   S
    C179   O413      0.63857      .   S
    C142   O414      0.63857      .   S
    C196   O414      0.63857      .   S
    C142   O415      0.63858      .   S
    C178   O415      0.63858      .   S
    C145   O416      0.63702      .   S
    C211   O416      0.63702      .   S
    C145   O417      0.63707      .   S
    C181   O417      0.63707      .   S
    C144   O418      0.63702      .   S
    C210   O418      0.63702      .   S
    C144   O419      0.63706      .   S
    C180   O419      0.63706      .   S
    C70    O420      0.48749      .   S
    C224   O420      0.48749      .   S
    C71    O421      0.48749      .   S
    C225   O421      0.48749      .   S
    C66    O422      0.48741      .   S
    C222   O422      0.48741      .   S
    C67    O423      0.48740      .   S
    C223   O423      0.48740      .   S
    C28    O424      0.54417      .   S
    C88    O424      0.54417      .   S
    C29    O425      0.54418      .   S
    C89    O425      0.54418      .   S
    C89    O426      0.70138      .   S
    C153   O426      0.70138      .   S
    C89    O427      0.69477      .   S
    C87    O427      0.69477      .   S
    C88    O428      0.70135      .   S
    C152   O428      0.70135      .   S
    C88    O429      0.69521      .   S
    C86    O429      0.69521      .   S
    C153   O430      0.70137      .   S
    C119   O430      0.70137      .   S
    C153   O431      0.75027      .   S
    C155   O431      0.75027      .   S
    C152   O432      0.70134      .   S
    C118   O432      0.70134      .   S
    C152   O433      0.75033      .   S
    C154   O433      0.75033      .   S
    C58    O434      0.54401  1_455   S
    C119   O434      0.54401      .   S
    C59    O435      0.54418      .   S
    C118   O435      0.54418      .   S
    C119   O436      0.69503      .   S
    C117   O436      0.69503      .   S
    C118   O437      0.69504      .   S
    C116   O437      0.69504      .   S
    C87    O438      0.54449      .   S
    C27    O438      0.54449      .   S
    C87    O439      0.70162      .   S
    C151   O439      0.70162      .   S
    C86    O440      0.54424      .   S
    C26    O440      0.54424      .   S
    C86    O441      0.70139      .   S
    C150   O441      0.70139      .   S
    C116   O442      0.70146      .   S
    C150   O442      0.70146      .   S
    C116   O443      0.54413      .   S
    C57    O443      0.54413      .   S
    C117   O444      0.70146      .   S
    C151   O444      0.70146      .   S
    C117   O445      0.54405      .   S
    C56    O445      0.54405  1_455   S
    C150   O446      0.74967      .   S
    C148   O446      0.74967      .   S
    C151   O447      0.74971      .   S
    C149   O447      0.74971      .   S
    C154   O448      0.63812      .   S
    C214   O448      0.63812      .   S
    C154   O449      0.63803      .   S
    C184   O449      0.63803      .   S
    C155   O450      0.63812      .   S
    C215   O450      0.63812      .   S
    C155   O451      0.63804      .   S
    C185   O451      0.63804      .   S
    C149   O452      0.63819      .   S
    C183   O452      0.63819      .   S
    C149   O453      0.63817      .   S
    C213   O453      0.63817      .   S
    C148   O454      0.63809      .   S
    C182   O454      0.63809      .   S
    C148   O455      0.63819      .   S
    C212   O455      0.63819      .   S
    C168   O456      1.10608      .   S
    C1     O456      1.10608      .   S
    C169   O457      1.10601      .   S
    C0     O457      1.10601      .   S
    C172   O458      1.09402      .   S
    C9     O458      1.09402      .   S
    C173   O459      1.09465      .   S
    C8     O459      1.09465  1_455   S
    C174   O460      1.10865      .   S
    C2     O460      1.10865  1_565   S
    C175   O461      1.10866      .   S
    C3     O461      1.10866  1_565   S
    C176   O462      1.10248      .   S
    C2     O462      1.10248  1_565   S
    C177   O463      1.10247      .   S
    C3     O463      1.10247  1_565   S
    C178   O464      1.11606      .   S
    C10    O464      1.11606  1_564   S
    C179   O465      1.11605      .   S
    C11    O465      1.11605  1_564   S
    C182   O466      1.11392      .   S
    C4     O466      1.11392  1_554   S
    C183   O467      1.11363      .   S
    C5     O467      1.11363  1_554   S
    C184   O468      1.11957      .   S
    C10    O468      1.11957  1_564   S
    C185   O469      1.11958      .   S
    C11    O469      1.11958  1_564   S
    C186   O470      1.11592      .   S
    C6     O470      1.11592      .   S
    C187   O471      1.11592      .   S
    C7     O471      1.11592      .   S
    C192   O472      1.10862      .   S
    C0     O472      1.10862  1_665   S
    C193   O473      1.10862      .   S
    C1     O473      1.10862  1_565   S
    C194   O474      1.10231      .   S
    C0     O474      1.10231  1_665   S
    C195   O475      1.10232      .   S
    C1     O475      1.10232  1_565   S
    C196   O476      1.11556      .   S
    C8     O476      1.11556  1_564   S
    C197   O477      1.11626      .   S
    C9     O477      1.11626  1_564   S
    C198   O478      1.10576      .   S
    C2     O478      1.10576      .   S
    C199   O479      1.10576      .   S
    C3     O479      1.10576      .   S
    C204   O480      1.11676      .   S
    C4     O480      1.11676      .   S
    C205   O481      1.11676      .   S
    C5     O481      1.11676      .   S
    C206   O482      1.09492      .   S
    C4     O482      1.09492      .   S
    C207   O483      1.09493      .   S
    C5     O483      1.09493      .   S
    C208   O484      1.09384      .   S
    C10    O484      1.09384      .   S
    C209   O485      1.09383      .   S
    C11    O485      1.09383      .   S
    C210   O486      1.09518      .   S
    C7     O486      1.09518  1_554   S
    C211   O487      1.09512      .   S
    C6     O487      1.09512  1_454   S
    C212   O488      1.11351      .   S
    C7     O488      1.11351  1_554   S
    C213   O489      1.11344      .   S
    C6     O489      1.11344  1_454   S
    C214   O490      1.11906      .   S
    C9     O490      1.11906  1_564   S
    C215   O491      1.11916      .   S
    C8     O491      1.11916  1_464   S
    C216   O492      1.07225      .   S
    C1     O492      1.07225  1_565   S
    C217   O493      1.07222      .   S
    C3     O493      1.07222  1_565   S
    C218   O494      1.07161      .   S
    C0     O494      1.07161  1_655   S
    C219   O495      1.07161      .   S
    C1     O495      1.07161      .   S
    C220   O496      1.07246      .   S
    C4     O496      1.07246      .   S
    C221   O497      1.07245      .   S
    C5     O497      1.07245      .   S
    C222   O498      1.07136      .   S
    C6     O498      1.07136  1_554   S
    C223   O499      1.07136      .   S
    C7     O499      1.07136  1_554   S
    C224   O500      1.06965      .   S
    C10    O500      1.06965  1_554   S
    C225   O501      1.06964      .   S
    C11    O501      1.06964  1_554   S
    C226   O502      1.07032      .   S
    C8     O502      1.07032  1_565   S
    C227   O503      1.07004      .   S
    C11    O503      1.07004  1_565   S
