# CIF file generated by openbabel 2.4.90, see http://openbabel.sf.net
data_I
_chemical_name_common ''
_cell_length_a 13.464
_cell_length_b 14.949
_cell_length_c 14.953
_cell_angle_alpha 89.953
_cell_angle_beta 89.982
_cell_angle_gamma 89.964
_space_group_name_H-M_alt 'P 1'
_space_group_name_Hall 'P 1'
loop_
    _symmetry_equiv_pos_as_xyz
    x,y,z
loop_
    _atom_site_label
    _atom_site_type_symbol
    _atom_site_fract_x
    _atom_site_fract_y
    _atom_site_fract_z
    _atom_site_occupancy
    H0      H    0.41717   0.54273   0.70667   1.000
    H1      H    0.41517   0.41889   0.59317   1.000
    H2      H    0.58353   0.70669   0.54263   1.000
    H3      H    0.58626   0.59287   0.41900   1.000
    H4      H    0.50094   0.44527   0.44571   1.000
    H5      H    0.91686   0.45761   0.29355   1.000
    H6      H    0.91442   0.58125   0.40725   1.000
    H7      H    0.08325   0.29345   0.45742   1.000
    H8      H    0.08549   0.40704   0.58118   1.000
    H9      H    0.99985   0.55462   0.55478   1.000
    H10     H    0.66699   0.79384   0.04242   1.000
    H11     H    0.66468   0.90757   0.91863   1.000
    H12     H    0.83292   0.95785   0.20640   1.000
    H13     H    0.83530   0.08158   0.09265   1.000
    H14     H    0.75001   0.05514   0.94505   1.000
    H15     H    0.16686   0.20647   0.95785   1.000
    H16     H    0.16431   0.09262   0.08154   1.000
    H17     H    0.33293   0.04234   0.79382   1.000
    H18     H    0.33507   0.91849   0.90746   1.000
    H19     H    0.24959   0.94494   0.05502   1.000
    C20     C    0.45428   0.54989   0.64243   1.000
    C21     C    0.45298   0.48188   0.57871   1.000
    N22     N    0.24993   0.12864   0.87161   1.000
    C23     C    0.54660   0.64239   0.54989   1.000
    C24     C    0.54832   0.57849   0.48205   1.000
    C25     C    0.50077   0.49690   0.49719   1.000
    C26     C    0.95388   0.45035   0.35781   1.000
    C27     C    0.95230   0.51824   0.42165   1.000
    C28     C    0.04619   0.35775   0.45025   1.000
    C29     C    0.04762   0.42150   0.51822   1.000
    C30     C    0.99992   0.50310   0.50319   1.000
    C31     C    0.70393   0.85813   0.04961   1.000
    C32     C    0.70245   0.92199   0.98162   1.000
    C33     C    0.79600   0.95065   0.14211   1.000
    C34     C    0.79752   0.01859   0.07820   1.000
    C35     C    0.74999   0.00354   0.99666   1.000
    C36     C    0.20376   0.14211   0.95061   1.000
    C37     C    0.20217   0.07821   0.01856   1.000
    C38     C    0.29591   0.04953   0.85809   1.000
    C39     C    0.29733   0.98153   0.92191   1.000
    C40     C    0.24965   0.99658   0.00346   1.000
    N41     N    0.50032   0.62894   0.62886   1.000
    N42     N    0.00003   0.37131   0.37127   1.000
    N43     N    0.74996   0.87161   0.12864   1.000
loop_
    _geom_bond_atom_site_label_1
    _geom_bond_atom_site_label_2
    _geom_bond_distance
    _geom_bond_site_symmetry_2
    _ccdc_geom_bond_type
    C40    C37       1.39584  1_565   S
    C40    H19       1.09055      .   S
    C40    C39       1.39620  1_554   S
    C37    H16       1.09226      .   S
    C37    C36       1.39414  1_554   S
    H10    C31       1.08791      .   S
    C31    N43       1.34985      .   S
    C31    C32       1.39410  1_554   S
    C34    H13       1.09233      .   S
    C34    C33       1.39421  1_545   S
    C34    C35       1.39565  1_554   S
    N43    C33       1.34987      .   S
    C33    H12       1.08787      .   S
    H5     C26       1.08791      .   S
    C26    N42       1.34963  1_655   S
    C26    C27       1.39399      .   S
    N42    C28       1.34983      .   S
    H6     C27       1.09221      .   S
    H3     C24       1.09338      .   S
    C27    C30       1.39604      .   S
    H4     C25       1.09051      .   S
    C28    H7        1.08794      .   S
    C28    C29       1.39403      .   S
    C24    C25       1.39622      .   S
    C24    C23       1.39405      .   S
    C25    C21       1.39630      .   S
    C30    C29       1.39625  1_655   S
    C30    H9        1.09051      .   S
    C29    H8        1.09220      .   S
    H2     C23       1.08793      .   S
    C23    N41       1.34997      .   S
    C21    H1        1.09216      .   S
    C21    C20       1.39405      .   S
    N41    C20       1.34983      .   S
    C20    H0        1.08788      .   S
    H17    C38       1.08788      .   S
    C38    N22       1.34985      .   S
    C38    C39       1.39376  1_545   S
    N22    C36       1.34987      .   S
    H18    C39       1.09222      .   S
    H11    C32       1.09218      .   S
    H14    C35       1.09063      .   S
    C36    H15       1.08794      .   S
    C32    C35       1.39579  1_565   S
