# CIF file generated by openbabel 2.4.90, see http://openbabel.sf.net
data_I
_chemical_name_common ''
_cell_length_a 13.464
_cell_length_b 14.949
_cell_length_c 14.953
_cell_angle_alpha 89.953
_cell_angle_beta 89.982
_cell_angle_gamma 89.964
_space_group_name_H-M_alt 'P 1'
_space_group_name_Hall 'P 1'
loop_
    _symmetry_equiv_pos_as_xyz
    x,y,z
loop_
    _atom_site_label
    _atom_site_type_symbol
    _atom_site_fract_x
    _atom_site_fract_y
    _atom_site_fract_z
    _atom_site_occupancy
    H0      H    0.42992   0.96755   0.68355   1.000
    H1      H    0.26054   0.00000   0.58396   1.000
    H2      H    0.29140   0.72338   0.61811   1.000
    H3      H    0.20279   0.94849   0.43700   1.000
    H4      H    0.05509   0.92090   0.34034   1.000
    H5      H    0.95930   0.71136   0.51563   1.000
    H6      H    0.10612   0.73911   0.61520   1.000
    H7      H    0.56965   0.68384   0.96737   1.000
    H8      H    0.73915   0.58436   0.00000   1.000
    H9      H    0.70898   0.61861   0.72340   1.000
    H10     H    0.79733   0.43747   0.94858   1.000
    H11     H    0.94509   0.34069   0.92097   1.000
    H12     H    0.04100   0.51597   0.71140   1.000
    H13     H    0.89413   0.61567   0.73926   1.000
    H14     H    0.93037   0.03267   0.31655   1.000
    H15     H    0.76101   0.99602   0.41617   1.000
    H16     H    0.79132   0.27680   0.38176   1.000
    H17     H    0.70317   0.05179   0.56300   1.000
    H18     H    0.55533   0.07922   0.65974   1.000
    H19     H    0.45905   0.28866   0.48444   1.000
    H20     H    0.60602   0.26102   0.38482   1.000
    H21     H    0.07004   0.31687   0.03264   1.000
    H22     H    0.23952   0.41628   0.99608   1.000
    H23     H    0.20891   0.38172   0.27677   1.000
    H24     H    0.29733   0.56295   0.05172   1.000
    H25     H    0.44498   0.65968   0.07923   1.000
    H26     H    0.54097   0.48448   0.28883   1.000
    H27     H    0.39417   0.38484   0.26114   1.000
    H28     H    0.68088   0.81682   0.46740   1.000
    H29     H    0.51158   0.91656   0.50422   1.000
    H30     H    0.54145   0.88197   0.22350   1.000
    H31     H    0.45299   0.06323   0.44843   1.000
    H32     H    0.30505   0.15978   0.42070   1.000
    H33     H    0.20959   0.98444   0.21142   1.000
    H34     H    0.35668   0.88501   0.23931   1.000
    H35     H    0.81957   0.53281   0.18358   1.000
    H36     H    0.98912   0.49598   0.08425   1.000
    H37     H    0.95898   0.77678   0.11850   1.000
    H38     H    0.04726   0.55177   0.93740   1.000
    H39     H    0.19507   0.57936   0.84075   1.000
    H40     H    0.29105   0.78854   0.00000   1.000
    H41     H    0.14412   0.76075   0.11562   1.000
    H42     H    0.18075   0.18356   0.53303   1.000
    H43     H    0.01140   0.08418   0.49609   1.000
    H44     H    0.04115   0.11821   0.77686   1.000
    H45     H    0.95308   0.93738   0.55100   1.000
    H46     H    0.80531   0.84075   0.57925   1.000
    H47     H    0.70928   0.00000   0.78870   1.000
    H48     H    0.85620   0.11533   0.76098   1.000
    H49     H    0.31956   0.46737   0.81648   1.000
    H50     H    0.48877   0.50423   0.91600   1.000
    H51     H    0.45886   0.22340   0.88220   1.000
    H52     H    0.54697   0.44849   0.06310   1.000
    H53     H    0.69480   0.42086   0.15970   1.000
    H54     H    0.79091   0.21154   0.98449   1.000
    H55     H    0.64392   0.23932   0.88499   1.000
    C56     C    0.37657   0.92206   0.65407   1.000
    C57     C    0.29359   0.94140   0.60448   1.000
    C58     C    0.30699   0.79427   0.62330   1.000
    C59     C    0.16336   0.84506   0.53144   1.000
    C60     C    0.14891   0.89726   0.45489   1.000
    C61     C    0.06662   0.88161   0.40081   1.000
    C62     C    0.99828   0.81408   0.42197   1.000
    C63     C    0.01364   0.76269   0.49917   1.000
    C64     C    0.09542   0.77790   0.55419   1.000
    C65     C    0.90980   0.79750   0.36219   1.000
    C66     C    0.62319   0.65440   0.92197   1.000
    C67     C    0.70623   0.60488   0.94141   1.000
    C68     C    0.69320   0.62377   0.79429   1.000
    C69     C    0.83680   0.53190   0.84510   1.000
    C70     C    0.85127   0.45536   0.89739   1.000
    C71     C    0.93352   0.40115   0.88165   1.000
    C72     C    0.00195   0.42231   0.81410   1.000
    C73     C    0.98657   0.49950   0.76270   1.000
    O74     O    0.89975   0.84739   0.29382   1.000
    O75     O    0.85031   0.73445   0.38290   1.000
    O76     O    0.10036   0.29400   0.84742   1.000
    C77     C    0.90484   0.55465   0.77806   1.000
    C78     C    0.09037   0.36237   0.79751   1.000
    C79     C    0.87692   0.07815   0.34600   1.000
    C80     C    0.79395   0.05880   0.39560   1.000
    C81     C    0.80706   0.20592   0.37660   1.000
    C82     C    0.66349   0.15511   0.46850   1.000
    C83     C    0.64916   0.10296   0.54518   1.000
    C84     C    0.56678   0.11852   0.59925   1.000
    C85     C    0.49827   0.18600   0.57810   1.000
    C86     C    0.51357   0.23738   0.50088   1.000
    C87     C    0.59542   0.22224   0.44585   1.000
    C88     C    0.40974   0.20255   0.63789   1.000
    C89     C    0.12348   0.34620   0.07814   1.000
    C90     C    0.20651   0.39570   0.05882   1.000
    C91     C    0.19323   0.37665   0.20590   1.000
    C92     C    0.33685   0.46854   0.15515   1.000
    C93     C    0.35123   0.54511   0.10295   1.000
    C94     C    0.43350   0.59921   0.11854   1.000
    C95     C    0.50190   0.57810   0.18607   1.000
    C96     C    0.48657   0.50090   0.23749   1.000
    C97     C    0.40480   0.44585   0.22233   1.000
    C98     C    0.59036   0.63790   0.20260   1.000
    C99     C    0.62734   0.84627   0.42203   1.000
    C100    C    0.54440   0.89592   0.44143   1.000
    C101    C    0.55727   0.87686   0.29435   1.000
    C102    C    0.41375   0.96880   0.34514   1.000
    C103    C    0.39914   0.04528   0.39725   1.000
    C104    C    0.31676   0.09933   0.38149   1.000
    C105    C    0.24838   0.07810   0.31404   1.000
    C106    C    0.26396   0.00096   0.26271   1.000
    C107    C    0.34583   0.94600   0.27803   1.000
    C108    C    0.15978   0.13782   0.29742   1.000
    C109    C    0.87313   0.57821   0.15419   1.000
    C110    C    0.95620   0.55879   0.10474   1.000
    C111    C    0.94318   0.70591   0.12361   1.000
    C112    C    0.08677   0.65502   0.03184   1.000
    C113    C    0.10121   0.60290   0.95532   1.000
    C114    C    0.18351   0.61860   0.90120   1.000
    C115    C    0.25197   0.68601   0.92235   1.000
    C116    C    0.23659   0.73732   0.99953   1.000
    C117    C    0.15481   0.72205   0.05461   1.000
    C118    C    0.34041   0.70261   0.86245   1.000
    C119    C    0.12717   0.15411   0.57838   1.000
    C120    C    0.04420   0.10464   0.55891   1.000
    C121    C    0.05703   0.12342   0.70602   1.000
    C122    C    0.91358   0.03168   0.65509   1.000
    C123    C    0.89914   0.95524   0.60289   1.000
    C124    C    0.81684   0.90115   0.61857   1.000
    C125    C    0.74834   0.92227   0.68602   1.000
    C126    C    0.76374   0.99937   0.73740   1.000
    C127    C    0.84552   0.05438   0.72219   1.000
    C128    C    0.65981   0.86249   0.70255   1.000
    C129    C    0.37305   0.42195   0.84604   1.000
    C130    C    0.45594   0.44141   0.89563   1.000
    C131    C    0.44303   0.29427   0.87695   1.000
    C132    C    0.58652   0.34516   0.96870   1.000
    C133    C    0.60094   0.39730   0.04522   1.000
    C134    C    0.68329   0.38162   0.09926   1.000
    C135    C    0.75177   0.31413   0.07810   1.000
    C136    C    0.73642   0.26282   0.00095   1.000
    C137    C    0.65459   0.27807   0.94596   1.000
    C138    C    0.84032   0.29752   0.13782   1.000
    N139    N    0.38420   0.83031   0.66487   1.000
    N140    N    0.24926   0.85951   0.58525   1.000
    N141    N    0.61579   0.66523   0.83024   1.000
    N142    N    0.75081   0.58571   0.85958   1.000
    N143    N    0.88439   0.16989   0.33511   1.000
    N144    N    0.74944   0.14068   0.41476   1.000
    N145    N    0.11591   0.33526   0.16985   1.000
    N146    N    0.25094   0.41475   0.14070   1.000
    N147    N    0.63464   0.83533   0.33032   1.000
    N148    N    0.49977   0.91504   0.35962   1.000
    N149    N    0.86575   0.66995   0.16502   1.000
    N150    N    0.00000   0.64061   0.08561   1.000
    N151    N    0.13444   0.16488   0.67011   1.000
    N152    N    0.99952   0.08544   0.64070   1.000
    N153    N    0.36571   0.33021   0.83533   1.000
    N154    N    0.50054   0.35957   0.91490   1.000
    O155    O    0.14984   0.38294   0.73438   1.000
    O156    O    0.39972   0.15266   0.70627   1.000
    O157    O    0.35018   0.26560   0.61717   1.000
    O158    O    0.60034   0.70628   0.15271   1.000
    O159    O    0.64990   0.61717   0.26562   1.000
    O160    O    0.14964   0.20614   0.34727   1.000
    O161    O    0.10029   0.11712   0.23441   1.000
    O162    O    0.35045   0.65268   0.79419   1.000
    O163    O    0.39984   0.76573   0.88294   1.000
    O164    O    0.64975   0.79429   0.65257   1.000
    O165    O    0.60029   0.88304   0.76560   1.000
    O166    O    0.85039   0.34739   0.20611   1.000
    O167    O    0.89986   0.23447   0.11713   1.000
loop_
    _geom_bond_atom_site_label_1
    _geom_bond_atom_site_label_2
    _geom_bond_distance
    _geom_bond_site_symmetry_2
    _ccdc_geom_bond_type
    H40    C116      1.06050  1_554   S
    H8     C67       1.02844  1_554   S
    C136   C135      1.40136      .   S
    C136   C137      1.39359  1_554   S
    C136   H54       1.08897  1_554   S
    C112   C117      1.40035      .   S
    C112   N150      1.43433      .   S
    C112   C113      1.39829  1_554   S
    H21    C89       1.08351      .   S
    C133   H52       1.08833      .   S
    C133   C134      1.39187      .   S
    C133   C132      1.39863  1_554   S
    H24    C93       1.08826      .   S
    C117   H41       1.09014      .   S
    C117   C116      1.39361  1_554   S
    C90    C89       1.37153      .   S
    C90    N146      1.39256      .   S
    C90    H22       1.08251  1_554   S
    C135   C134      1.40253      .   S
    C135   C138      1.51018      .   S
    C89    N145      1.38465      .   S
    H25    C94       1.08902      .   S
    H36    C110      1.08252      .   S
    N150   C110      1.38783  1_455   S
    N150   C111      1.36409  1_455   S
    C134   H53       1.08903      .   S
    C93    C94       1.39179      .   S
    C93    C92       1.39838      .   S
    C110   C109      1.37156      .   S
    O167   C138      1.27526      .   S
    H37    C111      1.08329      .   S
    C94    C95       1.40253      .   S
    C111   N149      1.32626      .   S
    C138   O166      1.27211      .   S
    N146   C92       1.42579      .   S
    N146   C91       1.37026      .   S
    O158   C98       1.27216      .   S
    C109   N149      1.38455      .   S
    C109   H35       1.08349      .   S
    C92    C97       1.40034      .   S
    N145   C91       1.32622      .   S
    C95    C98       1.51018      .   S
    C95    C96       1.40148      .   S
    C98    O159      1.27531      .   S
    C91    H23       1.08331      .   S
    H33    C106      1.08899  1_565   S
    C97    C96       1.39359      .   S
    C97    H27       1.09013      .   S
    H30    C101      1.08332      .   S
    O161   C108      1.27525      .   S
    C96    H26       1.08903      .   S
    H34    C107      1.09008      .   S
    C106   C107      1.39328  1_545   S
    C106   C105      1.40141      .   S
    C107   C102      1.40037      .   S
    O74    C65       1.27218      .   S
    C101   N147      1.32621      .   S
    C101   N148      1.37025      .   S
    C108   C105      1.51005      .   S
    C108   O160      1.27218      .   S
    C105   C104      1.40250      .   S
    H14    C79       1.08349      .   S
    N147   C99       1.38464      .   S
    N143   C79       1.38457      .   S
    N143   C81       1.32605      .   S
    H4     C61       1.08897      .   S
    C102   N148      1.42574      .   S
    C102   C103      1.39798  1_565   S
    C79    C80       1.37156      .   S
    N148   C100      1.39245      .   S
    C65    O75       1.27521      .   S
    C65    C62       1.51032      .   S
    C81    H16       1.08333      .   S
    C81    N144      1.37052      .   S
    C104   C103      1.39185      .   S
    C104   H32       1.08902      .   S
    H20    C87       1.09013      .   S
    C80    N144      1.39256      .   S
    C80    H15       1.08251  1_545   S
    C103   H31       1.08827      .   S
    C61    C62       1.40221  1_455   S
    C61    C60       1.39194      .   S
    N144   C82       1.42511      .   S
    C62    C63       1.40150  1_655   S
    C99    C100      1.37159      .   S
    C99    H28       1.08305      .   S
    H3     C60       1.08836      .   S
    C100   H29       1.08260      .   S
    C87    C82       1.40009      .   S
    C87    C86       1.39361      .   S
    C60    C59       1.39837      .   S
    C82    C83       1.39938      .   S
    H19    C86       1.08899      .   S
    H43    C120      1.08255      .   S
    C63    H5        1.08860  1_455   S
    C63    C64       1.39356      .   S
    C86    C85       1.40149      .   S
    C59    C64       1.40032      .   S
    C59    N140      1.42585      .   S
    H42    C119      1.08344      .   S
    C83    H17       1.08814      .   S
    C83    C84       1.39187      .   S
    H45    C123      1.09570      .   S
    C64    H6        1.09015      .   S
    C120   C119      1.37155      .   S
    C120   N152      1.39254  1_455   S
    C85    C84       1.40250      .   S
    C85    C88       1.51025      .   S
    C119   N151      1.38469      .   S
    H46    C124      1.08907      .   S
    H1     C57       1.02897  1_545   S
    N140   C57       1.39246      .   S
    N140   C58       1.37022      .   S
    C84    H18       1.08910      .   S
    C123   C124      1.39189      .   S
    C123   C122      1.39800  1_565   S
    C57    C56       1.37162      .   S
    O157   C88       1.27523      .   S
    H2     C58       1.08329      .   S
    C124   C125      1.40253      .   S
    C58    N139      1.32636      .   S
    C88    O156      1.27225      .   S
    N152   C122      1.42547      .   S
    N152   C121      1.37035  1_655   S
    O164   C128      1.27204      .   S
    C56    N139      1.38457      .   S
    C56    H0        1.08351      .   S
    C122   C127      1.40037      .   S
    N151   C121      1.32619      .   S
    C125   C128      1.51034      .   S
    C125   C126      1.40120      .   S
    C128   O165      1.27479      .   S
    C121   H44       1.08331      .   S
    H12    C73       1.08887  1_455   S
    C127   C126      1.39323  1_545   S
    C127   H48       1.09010      .   S
    H9     C68       1.08385      .   S
    O155   C78       1.27520      .   S
    C126   H47       1.06111  1_565   S
    H13    C77       1.09013      .   S
    C73    C77       1.39378      .   S
    C73    C72       1.40117  1_655   S
    C77    C69       1.39967      .   S
    O162   C118      1.27207      .   S
    C68    N141      1.32619      .   S
    C68    N142      1.37021      .   S
    C78    C72       1.51006      .   S
    C78    O76       1.27221      .   S
    C72    C71       1.40304  1_455   S
    H49    C129      1.08352      .   S
    N141   C66       1.38465      .   S
    N153   C129      1.38459      .   S
    N153   C131      1.32627      .   S
    H39    C114      1.08898      .   S
    C69    N142      1.42598      .   S
    C69    C70       1.39890      .   S
    C129   C130      1.37162      .   S
    N142   C67       1.39263      .   S
    C118   O163      1.27524      .   S
    C118   C115      1.51031      .   S
    C131   H51       1.08326      .   S
    C131   N154      1.37000      .   S
    C71    C70       1.39186      .   S
    C71    H11       1.08902      .   S
    H55    C137      1.09008      .   S
    C130   N154      1.39240      .   S
    C130   H50       1.08215      .   S
    C70    H10       1.08832      .   S
    C114   C115      1.40250      .   S
    C114   C113      1.39187      .   S
    N154   C132      1.42603      .   S
    C66    C67       1.37160      .   S
    C66    H7        1.08352      .   S
    C115   C116      1.40150      .   S
    H38    C113      1.08845      .   S
    C137   C132      1.40030      .   S
