# CIF file generated by openbabel 2.4.90, see http://openbabel.sf.net
data_I
_chemical_name_common ''
_cell_length_a 13.464
_cell_length_b 14.949
_cell_length_c 14.953
_cell_angle_alpha 89.953
_cell_angle_beta 89.982
_cell_angle_gamma 89.964
_space_group_name_H-M_alt 'P 1'
_space_group_name_Hall 'P 1'
loop_
    _symmetry_equiv_pos_as_xyz
    x,y,z
loop_
    _atom_site_label
    _atom_site_type_symbol
    _atom_site_fract_x
    _atom_site_fract_y
    _atom_site_fract_z
    _atom_site_occupancy
    N0      N    0.85429   0.51594   0.84366   1.000
    N1      N    0.35436   0.48450   0.15635   1.000
    N2      N    0.60410   0.34386   0.98453   1.000
    N3      N    0.10424   0.65630   0.01513   1.000
    N4      N    0.39615   0.98461   0.34383   1.000
    N5      N    0.14580   0.84363   0.51558   1.000
    N6      N    0.64592   0.15632   0.48446   1.000
    N7      N    0.89603   0.01504   0.65633   1.000
    Zr8     Zr   0.00006   0.25500   0.25486   1.000
    O9      O    0.10312   0.32241   0.21961   1.000
    O10     O    0.89707   0.21969   0.32229   1.000
    Zr11    Zr   0.75005   0.75503   0.24511   1.000
    O12     O    0.64715   0.82247   0.28044   1.000
    O13     O    0.85306   0.71972   0.17760   1.000
    O14     O    0.63861   0.67017   0.22548   1.000
    O15     O    0.86152   0.77461   0.32995   1.000
    Zr16    Zr   0.25008   0.24510   0.75515   1.000
    O17     O    0.35304   0.28043   0.82252   1.000
    O18     O    0.14711   0.17756   0.71981   1.000
    Zr19    Zr   0.50003   0.74539   0.74510   1.000
    O20     O    0.60306   0.67801   0.78038   1.000
    O21     O    0.61156   0.83001   0.72547   1.000
    O22     O    0.39699   0.78057   0.67769   1.000
    O23     O    0.38856   0.72566   0.82984   1.000
    O24     O    0.36465   0.21841   0.67580   1.000
    O25     O    0.13551   0.32448   0.78175   1.000
    O26     O    0.11470   0.17573   0.28160   1.000
    O27     O    0.88546   0.28171   0.17562   1.000
loop_
    _geom_bond_atom_site_label_1
    _geom_bond_atom_site_label_2
    _geom_bond_distance
    _geom_bond_site_symmetry_2
    _ccdc_geom_bond_type
    Zr8    O9        1.79414      .   S
    N1     O9        4.26767      .   S
    Zr8    O10       1.79372  1_455   S
    N6     O10       4.26697      .   S
    Zr11   O12       1.79260      .   S
    N4     O12       4.26449      .   S
    Zr11   O13       1.79452      .   S
    N3     O13       4.26996  1_455   S
    Zr11   O14       1.98755      .   S
    N1     O14       4.84152      .   S
    Zr11   O15       1.98744      .   S
    N5     O15       4.84104  1_455   S
    Zr16   O17       1.79386      .   S
    N2     O17       4.26701      .   S
    Zr16   O18       1.79548      .   S
    N7     O18       4.27181  1_655   S
    Zr19   O20       1.79313      .   S
    N0     O20       4.26547      .   S
    Zr19   O21       1.98564      .   S
    N7     O21       4.83684  1_545   S
    Zr19   O22       1.79334      .   S
    N5     O22       4.26619      .   S
    Zr19   O23       1.98589      .   S
    N3     O23       4.83730  1_554   S
    N6     O24       4.83552      .   S
    Zr16   O24       1.98630      .   S
    Zr16   O25       1.98595      .   S
    N0     O25       4.83467  1_655   S
    Zr8    O26       1.98583      .   S
    N4     O26       4.83457  1_565   S
    Zr8    O27       1.98594  1_455   S
    N2     O27       4.83493  1_556   S
