# CIF file generated by openbabel 2.4.90, see http://openbabel.sf.net
data_I
_chemical_name_common ''
_cell_length_a 13.464
_cell_length_b 14.949
_cell_length_c 14.953
_cell_angle_alpha 89.953
_cell_angle_beta 89.982
_cell_angle_gamma 89.964
_space_group_name_H-M_alt 'P 1'
_space_group_name_Hall 'P 1'
loop_
    _symmetry_equiv_pos_as_xyz
    x,y,z
loop_
    _atom_site_label
    _atom_site_type_symbol
    _atom_site_fract_x
    _atom_site_fract_y
    _atom_site_fract_z
    _atom_site_occupancy
    Zr0     Zr   0.50003   0.74539   0.74510   1.000
    Zr1     Zr   0.00006   0.25500   0.25486   1.000
    Zr2     Zr   0.75005   0.75503   0.24511   1.000
    Zr3     Zr   0.25008   0.24510   0.75515   1.000
    N4      N    0.85429   0.51594   0.84366   1.000
    O5      O    0.70610   0.61063   0.81566   1.000
    O6      O    0.01476   0.39275   0.82247   1.000
    O7      O    0.02712   0.41498   0.79421   1.000
    N8      N    0.35436   0.48450   0.15635   1.000
    O9      O    0.20617   0.38981   0.18435   1.000
    O10     O    0.52716   0.58530   0.20586   1.000
    N11     N    0.99998   0.44693   0.44696   1.000
    O12     O    0.00001   0.38004   0.38001   1.000
    N13     N    0.60410   0.34386   0.98453   1.000
    O14     O    0.45600   0.31576   0.88988   1.000
    O15     O    0.76467   0.32253   0.10751   1.000
    O16     O    0.77703   0.29430   0.08526   1.000
    N17     N    0.10424   0.65630   0.01513   1.000
    O18     O    0.95607   0.68440   0.11010   1.000
    O19     O    0.27709   0.70593   0.91457   1.000
    N20     N    0.39615   0.98461   0.34383   1.000
    O21     O    0.54425   0.88990   0.31577   1.000
    O22     O    0.23550   0.10759   0.32245   1.000
    O23     O    0.22316   0.08534   0.29423   1.000
    N24     N    0.14580   0.84363   0.51558   1.000
    O25     O    0.97299   0.79419   0.41479   1.000
    O26     O    0.29396   0.81574   0.61028   1.000
    N27     N    0.50058   0.55318   0.55330   1.000
    O28     O    0.50037   0.62017   0.62014   1.000
    N29     N    0.74998   0.94732   0.05291   1.000
    O30     O    0.74999   0.88032   0.11989   1.000
    N31     N    0.64592   0.15632   0.48446   1.000
    O32     O    0.79408   0.18438   0.38972   1.000
    O33     O    0.48541   0.17760   0.60758   1.000
    O34     O    0.47303   0.20583   0.58531   1.000
    N35     N    0.89603   0.01504   0.65633   1.000
    O36     O    0.04415   0.11001   0.68448   1.000
    O37     O    0.72309   0.91463   0.70584   1.000
    N38     N    0.24977   0.05286   0.94727   1.000
    O39     O    0.24989   0.11986   0.88032   1.000
loop_
    _geom_bond_atom_site_label_1
    _geom_bond_atom_site_label_2
    _geom_bond_distance
    _geom_bond_site_symmetry_2
    _ccdc_geom_bond_type
    N4     O5        2.48107      .   S
    Zr0    O5        3.58627      .   S
    N4     O6        2.85578  1_655   S
    Zr3    O6        3.98957      .   S
    N4     O7        2.86985  1_655   S
    Zr3    O7        3.97413      .   S
    N8     O9        2.48221      .   S
    Zr1    O9        3.58829      .   S
    N8     O10       2.87048      .   S
    Zr2    O10       3.97510      .   S
    N11    O12       1.41549  1_655   S
    Zr1    O12       2.64614      .   S
    N13    O14       2.48183      .   S
    Zr3    O14       3.58773      .   S
    N13    O15       2.85612  1_556   S
    Zr1    O15       3.98948  1_455   S
    N13    O16       2.87006  1_556   S
    Zr1    O16       3.97416  1_455   S
    N17    O18       2.48413  1_455   S
    Zr2    O18       3.58904      .   S
    N17    O19       2.86799  1_554   S
    Zr0    O19       3.97177      .   S
    N20    O21       2.48064      .   S
    Zr2    O21       3.58520      .   S
    N20    O22       2.85570  1_565   S
    Zr1    O22       3.98940      .   S
    N20    O23       2.87000  1_565   S
    Zr1    O23       3.97383      .   S
    N24    O25       2.87010  1_455   S
    Zr2    O25       3.97487      .   S
    N24    O26       2.48154      .   S
    Zr0    O26       3.58668      .   S
    N27    O28       1.41546      .   S
    Zr0    O28       2.64599      .   S
    N29    O30       1.41586      .   S
    Zr2    O30       2.64723      .   S
    N31    O32       2.48194      .   S
    Zr1    O32       3.58745  1_455   S
    N31    O33       2.85638      .   S
    Zr3    O33       3.99017      .   S
    N31    O34       2.87028      .   S
    Zr3    O34       3.97492      .   S
    N35    O36       2.48498  1_655   S
    Zr3    O36       3.59097      .   S
    N35    O37       2.86777  1_545   S
    Zr0    O37       3.97127      .   S
    N38    O39       1.41551      .   S
    Zr3    O39       2.64621      .   S
