# CIF file generated by openbabel 2.4.90, see http://openbabel.sf.net
data_I
_chemical_name_common ''
_cell_length_a 13.464
_cell_length_b 14.949
_cell_length_c 14.953
_cell_angle_alpha 89.953
_cell_angle_beta 89.982
_cell_angle_gamma 89.964
_space_group_name_H-M_alt 'P 1'
_space_group_name_Hall 'P 1'
loop_
    _symmetry_equiv_pos_as_xyz
    x,y,z
loop_
    _atom_site_label
    _atom_site_type_symbol
    _atom_site_fract_x
    _atom_site_fract_y
    _atom_site_fract_z
    _atom_site_occupancy
    N0      N    0.85429   0.51594   0.84366   1.000
    N1      N    0.35436   0.48450   0.15635   1.000
    N2      N    0.99998   0.44693   0.44696   1.000
    N3      N    0.60410   0.34386   0.98453   1.000
    N4      N    0.10424   0.65630   0.01513   1.000
    N5      N    0.39615   0.98461   0.34383   1.000
    N6      N    0.14580   0.84363   0.51558   1.000
    N7      N    0.50058   0.55318   0.55330   1.000
    N8      N    0.74998   0.94732   0.05291   1.000
    N9      N    0.64592   0.15632   0.48446   1.000
    N10     N    0.89603   0.01504   0.65633   1.000
    N11     N    0.24977   0.05286   0.94727   1.000
    Zr12    Zr   0.00006   0.25500   0.25486   1.000
    O13     O    0.11161   0.17017   0.27455   1.000
    O14     O    0.88237   0.28876   0.18118   1.000
    O15     O    0.11778   0.18129   0.28865   1.000
    O16     O    0.10312   0.32241   0.21961   1.000
    O17     O    0.89707   0.21969   0.32229   1.000
    O18     O    0.00004   0.31752   0.31744   1.000
    O19     O    0.88855   0.27465   0.17006   1.000
    Zr20    Zr   0.75005   0.75503   0.24511   1.000
    O21     O    0.64715   0.82247   0.28044   1.000
    O22     O    0.85306   0.71972   0.17760   1.000
    O23     O    0.63861   0.67017   0.22548   1.000
    O24     O    0.86152   0.77461   0.32995   1.000
    O25     O    0.75002   0.81768   0.18250   1.000
    Zr26    Zr   0.25008   0.24510   0.75515   1.000
    O27     O    0.36155   0.22547   0.67023   1.000
    O28     O    0.13242   0.31892   0.78881   1.000
    O29     O    0.36775   0.21135   0.68137   1.000
    O30     O    0.13860   0.33004   0.77468   1.000
    O31     O    0.24999   0.18248   0.81774   1.000
    O32     O    0.35304   0.28043   0.82252   1.000
    O33     O    0.14711   0.17756   0.71981   1.000
    Zr34    Zr   0.50003   0.74539   0.74510   1.000
    O35     O    0.50020   0.68278   0.68262   1.000
    O36     O    0.60306   0.67801   0.78038   1.000
    O37     O    0.61156   0.83001   0.72547   1.000
    O38     O    0.39699   0.78057   0.67769   1.000
    O39     O    0.38856   0.72566   0.82984   1.000
loop_
    _geom_bond_atom_site_label_1
    _geom_bond_atom_site_label_2
    _geom_bond_distance
    _geom_bond_site_symmetry_2
    _ccdc_geom_bond_type
    Zr12   O13       1.98691      .   S
    N5     O13       4.84033  1_565   S
    Zr12   O14       1.99474  1_455   S
    N3     O14       4.83333  1_556   S
    Zr12   O15       1.99470      .   S
    N5     O15       4.83290  1_565   S
    Zr12   O16       1.79414      .   S
    N1     O16       4.26767      .   S
    Zr12   O17       1.79372  1_455   S
    N9     O17       4.26697      .   S
    Zr12   O18       1.32307      .   S
    N2     O18       2.73855  1_655   S
    Zr12   O19       1.98708  1_455   S
    N3     O19       4.84061  1_556   S
    Zr20   O21       1.79260      .   S
    N5     O21       4.26449      .   S
    Zr20   O22       1.79452      .   S
    N4     O22       4.26996  1_455   S
    Zr20   O23       1.98755      .   S
    N1     O23       4.84152      .   S
    Zr20   O24       1.98744      .   S
    N6     O24       4.84104  1_455   S
    Zr20   O25       1.32362      .   S
    N8     O25       2.73948      .   S
    Zr26   O27       1.98746      .   S
    N9     O27       4.84119      .   S
    Zr26   O28       1.99479      .   S
    N0     O28       4.83304  1_655   S
    Zr26   O29       1.99509      .   S
    N9     O29       4.83394      .   S
    Zr26   O30       1.98707      .   S
    N0     O30       4.84039  1_655   S
    Zr26   O31       1.32311      .   S
    N11    O31       2.73862      .   S
    Zr26   O32       1.79386      .   S
    N3     O32       4.26701      .   S
    Zr26   O33       1.79548      .   S
    N10    O33       4.27181  1_655   S
    Zr34   O35       1.32300      .   S
    N7     O35       2.73846      .   S
    Zr34   O36       1.79313      .   S
    N0     O36       4.26547      .   S
    Zr34   O37       1.98564      .   S
    N10    O37       4.83684  1_545   S
    Zr34   O38       1.79334      .   S
    N6     O38       4.26619      .   S
    Zr34   O39       1.98589      .   S
    N4     O39       4.83730  1_554   S
