# CIF file generated by openbabel 2.4.90, see http://openbabel.sf.net
data_I
_chemical_name_common ''
_cell_length_a 18.28
_cell_length_b 14.29
_cell_length_c 15.324
_cell_angle_alpha 89.443
_cell_angle_beta 90.195
_cell_angle_gamma 107.341
_space_group_name_H-M_alt 'P 1'
_space_group_name_Hall 'P 1'
loop_
    _symmetry_equiv_pos_as_xyz
    x,y,z
loop_
    _atom_site_label
    _atom_site_type_symbol
    _atom_site_fract_x
    _atom_site_fract_y
    _atom_site_fract_z
    _atom_site_occupancy
    O0      O    0.18094   0.23859   0.27410   1.000
    O1      O    0.68094   0.23859   0.27410   1.000
    O2      O    0.06910   0.26069   0.77366   1.000
    O3      O    0.56911   0.26069   0.77366   1.000
    O4      O    0.31905   0.76141   0.72591   1.000
    O5      O    0.81905   0.76141   0.72591   1.000
    O6      O    0.43088   0.73932   0.22635   1.000
    O7      O    0.93088   0.73932   0.22635   1.000
