# CIF file generated by openbabel 2.4.90, see http://openbabel.sf.net
data_I
_chemical_name_common ''
_cell_length_a 18.28
_cell_length_b 14.29
_cell_length_c 15.324
_cell_angle_alpha 89.443
_cell_angle_beta 90.195
_cell_angle_gamma 107.341
_space_group_name_H-M_alt 'P 1'
_space_group_name_Hall 'P 1'
loop_
    _symmetry_equiv_pos_as_xyz
    x,y,z
loop_
    _atom_site_label
    _atom_site_type_symbol
    _atom_site_fract_x
    _atom_site_fract_y
    _atom_site_fract_z
    _atom_site_occupancy
    C0      C    0.30005   0.43243   0.28512   1.000
    C1      C    0.80005   0.43243   0.28512   1.000
    C2      C    0.49183   0.25006   0.29751   1.000
    C3      C    0.99183   0.25006   0.29751   1.000
    C4      C    0.45003   0.06646   0.78519   1.000
    C5      C    0.95003   0.06646   0.78519   1.000
    C6      C    0.25809   0.24851   0.79742   1.000
    C7      C    0.75809   0.24851   0.79742   1.000
    C8      C    0.19994   0.56758   0.71489   1.000
    C9      C    0.69994   0.56758   0.71489   1.000
    C10     C    0.00816   0.74995   0.70250   1.000
    C11     C    0.50816   0.74995   0.70250   1.000
    C12     C    0.04996   0.93355   0.21483   1.000
    C13     C    0.54996   0.93355   0.21483   1.000
    C14     C    0.24189   0.75149   0.20260   1.000
    C15     C    0.74190   0.75149   0.20260   1.000
    O16     O    0.23539   0.44535   0.30353   1.000
    O17     O    0.73539   0.44535   0.30353   1.000
    O18     O    0.35752   0.50738   0.26663   1.000
    O19     O    0.85752   0.50738   0.26662   1.000
    O20     O    0.04228   0.33354   0.31109   1.000
    O21     O    0.54228   0.33354   0.31109   1.000
    O22     O    0.50721   0.16868   0.29188   1.000
    O23     O    0.00000   0.16868   0.29188   1.000
    O24     O    0.01470   0.05320   0.80370   1.000
    O25     O    0.51470   0.05320   0.80370   1.000
    O26     O    0.39258   0.99188   0.76665   1.000
    O27     O    0.89258   0.99188   0.76665   1.000
    O28     O    0.20769   0.16477   0.81129   1.000
    O29     O    0.70769   0.16478   0.81129   1.000
    O30     O    0.24265   0.32996   0.79166   1.000
    O31     O    0.74265   0.32996   0.79166   1.000
    O32     O    0.26460   0.55466   0.69648   1.000
    O33     O    0.76460   0.55466   0.69648   1.000
    O34     O    0.14247   0.49262   0.73339   1.000
    O35     O    0.64247   0.49262   0.73339   1.000
    O36     O    0.45771   0.66647   0.68893   1.000
    O37     O    0.95771   0.66647   0.68893   1.000
    O38     O    0.99278   0.83132   0.70814   1.000
    O39     O    0.49278   0.83132   0.70810   1.000
    O40     O    0.48529   0.94681   0.19624   1.000
    O41     O    0.98529   0.94681   0.19624   1.000
    O42     O    0.10741   0.00812   0.23336   1.000
    O43     O    0.60741   0.00812   0.23336   1.000
    O44     O    0.29230   0.83523   0.18872   1.000
    O45     O    0.79230   0.83523   0.18872   1.000
    O46     O    0.25733   0.67004   0.20835   1.000
    O47     O    0.75733   0.67004   0.20835   1.000
loop_
    _geom_bond_atom_site_label_1
    _geom_bond_atom_site_label_2
    _geom_bond_distance
    _geom_bond_site_symmetry_2
    _ccdc_geom_bond_type
    O44    C14       1.29043      .   S
    O45    C15       1.29043      .   S
    O40    C13       1.28247      .   S
    O41    C12       1.28243  1_655   S
    C15    O47       1.27892      .   S
    C14    O46       1.27892      .   S
    C13    O43       1.28685  1_565   S
    C12    O42       1.28685  1_565   S
    O19    C1        1.28711      .   S
    O18    C0        1.28709      .   S
    C0     O16       1.28215      .   S
    C1     O17       1.28218      .   S
    O22    C2        1.27900      .   S
    O23    C3        1.21969  1_455   S
    C2     O21       1.29021      .   S
    C3     O20       1.29018  1_655   S
    O37    C10       1.29016  1_655   S
    O36    C11       1.29017      .   S
    O32    C8        1.28219      .   S
    O33    C9        1.28217      .   S
    C11    O39       1.27895      .   S
    C10    O38       1.27900  1_455   S
    C8     O34       1.28712      .   S
    C9     O35       1.28712      .   S
    O26    C4        1.28686  1_565   S
    O27    C5        1.28686  1_565   S
    C5     O24       1.28217  1_655   S
    C4     O25       1.28222      .   S
    O30    C6        1.27894      .   S
    O31    C7        1.27893      .   S
    C6     O28       1.29041      .   S
    C7     O29       1.29041      .   S
