# CIF file generated by openbabel 2.4.90, see http://openbabel.sf.net
data_I
_chemical_name_common ''
_cell_length_a 18.28
_cell_length_b 14.29
_cell_length_c 15.324
_cell_angle_alpha 89.443
_cell_angle_beta 90.195
_cell_angle_gamma 107.341
_space_group_name_H-M_alt 'P 1'
_space_group_name_Hall 'P 1'
loop_
    _symmetry_equiv_pos_as_xyz
    x,y,z
loop_
    _atom_site_label
    _atom_site_type_symbol
    _atom_site_fract_x
    _atom_site_fract_y
    _atom_site_fract_z
    _atom_site_occupancy
    Zr0     Zr   0.14612   0.33725   0.34101   1.000
    Zr1     Zr   0.64612   0.33725   0.34101   1.000
    Zr2     Zr   0.08813   0.13547   0.22600   1.000
    Zr3     Zr   0.58813   0.13547   0.22600   1.000
    Zr4     Zr   0.10390   0.16078   0.84099   1.000
    Zr5     Zr   0.60391   0.16078   0.84099   1.000
    Zr6     Zr   0.16198   0.36571   0.72596   1.000
    Zr7     Zr   0.66198   0.36571   0.72596   1.000
    Zr8     Zr   0.35387   0.66275   0.65900   1.000
    Zr9     Zr   0.85387   0.66275   0.65900   1.000
    Zr10    Zr   0.41186   0.86453   0.77401   1.000
    Zr11    Zr   0.91186   0.86453   0.77401   1.000
    Zr12    Zr   0.39608   0.83922   0.15902   1.000
    Zr13    Zr   0.89608   0.83922   0.15902   1.000
    Zr14    Zr   0.33801   0.63430   0.27400   1.000
    Zr15    Zr   0.83801   0.63430   0.27400   1.000
    N16     N    0.58727   0.73006   0.21759   1.000
    O17     O    0.42218   0.76429   0.20952   1.000
    O18     O    0.40766   0.71306   0.23826   1.000
    N19     N    0.40521   0.84543   0.96454   1.000
    O20     O    0.41169   0.84337   0.89904   1.000
    O21     O    0.40550   0.83518   0.03135   1.000
    N22     N    0.83725   0.22897   0.28265   1.000
    O23     O    0.65774   0.21281   0.26208   1.000
    O24     O    0.67224   0.26326   0.29083   1.000
    N25     N    0.08668   0.73006   0.21759   1.000
    O26     O    0.92218   0.76429   0.20952   1.000
    O27     O    0.90766   0.71306   0.23826   1.000
    N28     N    0.66274   0.77103   0.71735   1.000
    O29     O    0.84225   0.78719   0.73793   1.000
    O30     O    0.82775   0.73675   0.70918   1.000
    N31     N    0.41272   0.26994   0.78241   1.000
    O32     O    0.57781   0.23571   0.79049   1.000
    O33     O    0.59232   0.28694   0.76173   1.000
    N34     N    0.16274   0.77103   0.71735   1.000
    O35     O    0.34225   0.78719   0.73793   1.000
    O36     O    0.32775   0.73675   0.70918   1.000
    N37     N    0.65480   0.34497   0.53478   1.000
    O38     O    0.66160   0.34391   0.60074   1.000
    O39     O    0.65528   0.33402   0.46850   1.000
    N40     N    0.09476   0.15456   0.03546   1.000
    O41     O    0.08830   0.15662   0.10096   1.000
    O42     O    0.09448   0.16482   0.96866   1.000
    N43     N    0.84518   0.65502   0.46523   1.000
    O44     O    0.84471   0.66598   0.53151   1.000
    O45     O    0.83838   0.65609   0.39926   1.000
    N46     N    0.33725   0.22897   0.28265   1.000
    O47     O    0.17224   0.26326   0.29083   1.000
    O48     O    0.15774   0.21281   0.26208   1.000
    N49     N    0.91272   0.26994   0.78241   1.000
    O50     O    0.07780   0.23571   0.79049   1.000
    O51     O    0.09232   0.28694   0.76173   1.000
    N52     N    0.90520   0.84542   0.96455   1.000
    O53     O    0.90550   0.83517   0.03135   1.000
    O54     O    0.91168   0.84337   0.89905   1.000
    N55     N    0.34518   0.65502   0.46523   1.000
    O56     O    0.34471   0.66598   0.53151   1.000
    O57     O    0.33838   0.65609   0.39926   1.000
    N58     N    0.59477   0.15457   0.03546   1.000
    O59     O    0.58830   0.15663   0.10096   1.000
    O60     O    0.59448   0.16482   0.96866   1.000
    N61     N    0.15480   0.34498   0.53478   1.000
    O62     O    0.15528   0.33402   0.46850   1.000
    O63     O    0.16160   0.34392   0.60074   1.000
    C64     C    0.98622   0.74925   0.69986   1.000
    O65     O    0.04595   0.75509   0.70586   1.000
    O66     O    0.94600   0.70693   0.68691   1.000
    O67     O    0.96927   0.79859   0.72047   1.000
    C68     C    0.73615   0.24775   0.80012   1.000
    O69     O    0.79590   0.25373   0.79404   1.000
    O70     O    0.69597   0.20526   0.81313   1.000
    O71     O    0.71923   0.29779   0.77947   1.000
    C72     C    0.20234   0.53829   0.71492   1.000
    O73     O    0.25578   0.57349   0.69633   1.000
    O74     O    0.19007   0.61592   0.71554   1.000
    O75     O    0.17728   0.48373   0.72230   1.000
    C76     C    0.48622   0.74925   0.69984   1.000
    O77     O    0.44600   0.70693   0.68690   1.000
    O78     O    0.54596   0.75508   0.70585   1.000
    O79     O    0.46927   0.79859   0.72045   1.000
    C80     C    0.23614   0.24775   0.80012   1.000
    O81     O    0.21923   0.29779   0.77947   1.000
    O82     O    0.19597   0.20526   0.81313   1.000
    O83     O    0.29590   0.25373   0.79404   1.000
    C84     C    0.70234   0.53829   0.71492   1.000
    O85     O    0.69007   0.61592   0.71555   1.000
    O86     O    0.67728   0.48373   0.72230   1.000
    O87     O    0.75579   0.57349   0.69633   1.000
    C88     C    0.45243   0.03718   0.78518   1.000
    O89     O    0.42733   0.98269   0.77776   1.000
    O90     O    0.50587   0.07208   0.80376   1.000
    O91     O    0.44013   0.11481   0.78445   1.000
    C92     C    0.95243   0.03718   0.78518   1.000
    O93     O    0.94013   0.11481   0.78445   1.000
    O94     O    0.92733   0.98269   0.77776   1.000
    O95     O    0.00587   0.07208   0.80376   1.000
    C96     C    0.54755   0.96282   0.21481   1.000
    O97     O    0.49412   0.92792   0.19622   1.000
    O98     O    0.57266   0.01731   0.22224   1.000
    O99     O    0.55985   0.88519   0.21555   1.000
    C100    C    0.76384   0.75225   0.19989   1.000
    O101    O    0.70409   0.74628   0.20597   1.000
    O102    O    0.80402   0.79474   0.18688   1.000
    O103    O    0.78076   0.70221   0.22053   1.000
    C104    C    0.79766   0.46172   0.28509   1.000
    O105    O    0.82271   0.51628   0.27770   1.000
    O106    O    0.74421   0.42651   0.30368   1.000
    O107    O    0.80992   0.38409   0.28446   1.000
    C108    C    0.51377   0.25076   0.30016   1.000
    O109    O    0.53072   0.20142   0.27955   1.000
    O110    O    0.55399   0.29308   0.31310   1.000
    O111    O    0.45404   0.24492   0.29415   1.000
    C112    C    0.26384   0.75225   0.19989   1.000
    O113    O    0.20394   0.74628   0.20597   1.000
    O114    O    0.30401   0.79474   0.18688   1.000
    O115    O    0.28076   0.70221   0.22053   1.000
    C116    C    0.04755   0.96282   0.21481   1.000
    O117    O    0.99412   0.92792   0.19622   1.000
    O118    O    0.05971   0.88519   0.21555   1.000
    O119    O    0.07266   0.01731   0.22224   1.000
    C120    C    0.01137   0.25076   0.30016   1.000
    O121    O    0.05279   0.29308   0.31310   1.000
    O122    O    0.95284   0.24492   0.29415   1.000
    O123    O    0.02772   0.20142   0.27955   1.000
    C124    C    0.29765   0.46172   0.28509   1.000
    O125    O    0.30992   0.38409   0.28447   1.000
    O126    O    0.24420   0.42651   0.30368   1.000
    O127    O    0.32271   0.51628   0.27770   1.000
loop_
    _geom_bond_atom_site_label_1
    _geom_bond_atom_site_label_2
    _geom_bond_distance
    _geom_bond_site_symmetry_2
    _ccdc_geom_bond_type
    N16    O17       3.19966      .   S
    Zr12   O17       1.50293      .   S
    N16    O18       3.23552      .   S
    Zr14   O18       1.52526      .   S
    N19    O20       1.01278      .   S
    Zr10   O20       1.93667      .   S
    N19    O21       1.03303  1_556   S
    Zr12   O21       1.96748      .   S
    N22    O23       3.23471      .   S
    Zr3    O23       1.52149      .   S
    N22    O24       3.19989      .   S
    Zr1    O24       1.50217      .   S
    N25    O26       3.18899  1_455   S
    Zr13   O26       1.50292      .   S
    N25    O27       3.22481  1_455   S
    Zr15   O27       1.52527      .   S
    N28    O29       3.23470      .   S
    Zr11   O29       1.52149      .   S
    N28    O30       3.19988      .   S
    Zr9    O30       1.50217      .   S
    N31    O32       3.19967      .   S
    Zr5    O32       1.50292      .   S
    N31    O33       3.23555      .   S
    Zr7    O33       1.52548      .   S
    N34    O35       3.23472      .   S
    Zr10   O35       1.52149      .   S
    N34    O36       3.19988      .   S
    Zr8    O36       1.50217      .   S
    N37    O38       1.01847      .   S
    Zr7    O38       1.94660      .   S
    N37    O39       1.02969      .   S
    Zr1    O39       1.96149      .   S
    N40    O41       1.01282      .   S
    Zr2    O41       1.93672      .   S
    N40    O42       1.03299  1_554   S
    Zr4    O42       1.96743      .   S
    N43    O44       1.02968      .   S
    Zr9    O44       1.96148      .   S
    N43    O45       1.01867      .   S
    Zr15   O45       1.94718      .   S
    N46    O47       3.19988      .   S
    Zr0    O47       1.50218      .   S
    N46    O48       3.23470      .   S
    Zr2    O48       1.52149      .   S
    N49    O50       3.19962  1_655   S
    Zr4    O50       1.50293      .   S
    N49    O51       3.23550  1_655   S
    Zr6    O51       1.52549      .   S
    N52    O53       1.03297  1_556   S
    Zr13   O53       1.96742      .   S
    N52    O54       1.01284      .   S
    Zr11   O54       1.93673      .   S
    N55    O56       1.02967      .   S
    Zr8    O56       1.96148      .   S
    N55    O57       1.01868      .   S
    Zr14   O57       1.94718      .   S
    N58    O59       1.01283      .   S
    Zr3    O59       1.93672      .   S
    N58    O60       1.03298  1_554   S
    Zr5    O60       1.96742      .   S
    N61    O62       1.02969      .   S
    Zr0    O62       1.96150      .   S
    N61    O63       1.01847      .   S
    Zr6    O63       1.94660      .   S
    C64    O65       1.07378  1_655   S
    N34    O65       2.08537      .   S
    C64    O66       0.82571      .   S
    Zr9    O66       1.66872      .   S
    C64    O67       0.90999      .   S
    Zr11   O67       1.80915      .   S
    C68    O69       1.07424      .   S
    N49    O69       2.08632      .   S
    C68    O70       0.82493      .   S
    Zr5    O70       1.66751      .   S
    C68    O71       0.91318      .   S
    Zr7    O71       1.81482      .   S
    C72    O73       0.99749      .   S
    Zr8    O73       1.94893      .   S
    C72    O74       1.19562      .   S
    N34    O74       2.41353      .   S
    C72    O75       0.78499      .   S
    Zr6    O75       1.62564      .   S
    C76    O77       0.82569      .   S
    Zr8    O77       1.66870      .   S
    C76    O78       1.07380      .   S
    N28    O78       2.08540      .   S
    C76    O79       0.90997      .   S
    Zr10   O79       1.80929      .   S
    C80    O81       0.91318      .   S
    Zr6    O81       1.81482      .   S
    C80    O82       0.82493      .   S
    Zr4    O82       1.66750      .   S
    C80    O83       1.07424      .   S
    N31    O83       2.08633      .   S
    C84    O85       1.19562      .   S
    N28    O85       2.41353      .   S
    C84    O86       0.78499      .   S
    Zr7    O86       1.62564      .   S
    C84    O87       0.99748      .   S
    Zr9    O87       1.94892      .   S
    C88    O89       0.78623  1_545   S
    Zr10   O89       1.62833      .   S
    C88    O90       0.99720      .   S
    Zr5    O90       1.94851      .   S
    C88    O91       1.19581      .   S
    N31    O91       2.41390      .   S
    C92    O93       1.19580      .   S
    N49    O93       2.41390      .   S
    C92    O94       0.78623  1_545   S
    Zr11   O94       1.62833      .   S
    C92    O95       0.99719  1_655   S
    Zr4    O95       1.94851      .   S
    C96    O97       0.99723      .   S
    Zr12   O97       1.94839      .   S
    C96    O98       0.78627  1_565   S
    Zr3    O98       1.62835      .   S
    C96    O99       1.19580      .   S
    N16    O99       2.41390      .   S
    C100   O101      1.07424      .   S
    N16    O101      2.08632      .   S
    C100   O102      0.82494      .   S
    Zr13   O102      1.66752      .   S
    C100   O103      0.91310      .   S
    Zr15   O103      1.81456      .   S
    C104   O105      0.78502      .   S
    Zr15   O105      1.62566      .   S
    C104   O106      0.99748      .   S
    Zr1    O106      1.94892      .   S
    C104   O107      1.19562      .   S
    N22    O107      2.41353      .   S
    C108   O109      0.91000      .   S
    Zr3    O109      1.80922      .   S
    C108   O110      0.82571      .   S
    Zr1    O110      1.66870      .   S
    C108   O111      1.07380      .   S
    N46    O111      2.08539      .   S
    C112   O113      1.07691      .   S
    N25    O113      2.09430      .   S
    C112   O114      0.82494      .   S
    Zr12   O114      1.66751      .   S
    C112   O115      0.91310      .   S
    Zr14   O115      1.81456      .   S
    C116   O117      0.99722  1_455   S
    Zr13   O117      1.94837      .   S
    C116   O118      1.19456      .   S
    N25    O118      2.41003      .   S
    C116   O119      0.78626  1_565   S
    Zr2    O119      1.62835      .   S
    C120   O121      0.84059      .   S
    Zr0    O121      1.68838      .   S
    C120   O122      1.05197  1_455   S
    N22    O122      2.06362      .   S
    C120   O123      0.90376      .   S
    Zr2    O123      1.85004      .   S
    C124   O125      1.19562      .   S
    N46    O125      2.41353      .   S
    C124   O126      0.99748      .   S
    Zr0    O126      1.94892      .   S
    C124   O127      0.78502      .   S
    Zr14   O127      1.62566      .   S
