# CIF file generated by openbabel 2.4.90, see http://openbabel.sf.net
data_I
_chemical_name_common ''
_cell_length_a 6.9295
_cell_length_b 13.793
_cell_length_c 21.991
_cell_angle_alpha 89.959
_cell_angle_beta 89.755
_cell_angle_gamma 89.82
_space_group_name_H-M_alt 'P 1'
_space_group_name_Hall 'P 1'
loop_
    _symmetry_equiv_pos_as_xyz
    x,y,z
loop_
    _atom_site_label
    _atom_site_type_symbol
    _atom_site_fract_x
    _atom_site_fract_y
    _atom_site_fract_z
    _atom_site_occupancy
    N0      N    0.69522   0.87225   0.16767   1.000
    N1      N    0.30246   0.12581   0.66722   1.000
    N2      N    0.77965   0.70954   0.48205   1.000
    N3      N    0.26158   0.96776   0.35254   1.000
    N4      N    0.19625   0.62540   0.66688   1.000
    N5      N    0.27952   0.78775   0.98218   1.000
    N6      N    0.76123   0.53944   0.85172   1.000
    N7      N    0.21816   0.28836   0.98232   1.000
    N8      N    0.80267   0.37215   0.16734   1.000
    N9      N    0.23745   0.45941   0.35226   1.000
    N10     N    0.71895   0.20968   0.48221   1.000
    N11     N    0.73763   0.03820   0.85249   1.000
    Zr12    Zr   0.24778   0.87949   0.86684   1.000
    O13     O    0.39655   0.92988   0.85874   1.000
    O14     O    0.09340   0.93087   0.85930   1.000
    O15     O    0.23065   0.80434   0.80749   1.000
    Zr16    Zr   0.25122   0.38168   0.86688   1.000
    O17     O    0.26850   0.30593   0.80763   1.000
    O18     O    0.10249   0.43172   0.85840   1.000
    O19     O    0.40562   0.43269   0.85914   1.000
    Zr20    Zr   0.28386   0.86806   0.46716   1.000
    O21     O    0.29040   0.94442   0.52659   1.000
    O22     O    0.13174   0.81682   0.47449   1.000
    O23     O    0.43490   0.81774   0.47570   1.000
    Zr24    Zr   0.75047   0.11729   0.36771   1.000
    O25     O    0.76787   0.19274   0.30824   1.000
    O26     O    0.60206   0.06937   0.35927   1.000
    O27     O    0.90519   0.06836   0.35995   1.000
    Zr28    Zr   0.74330   0.61695   0.36778   1.000
    O29     O    0.89360   0.56709   0.35926   1.000
    O30     O    0.59043   0.56602   0.35992   1.000
    O31     O    0.72707   0.69257   0.30841   1.000
    Zr32    Zr   0.21575   0.36732   0.46705   1.000
    O33     O    0.20865   0.44384   0.52638   1.000
    O34     O    0.36762   0.31645   0.47477   1.000
    O35     O    0.06447   0.31723   0.47552   1.000
    Zr36    Zr   0.71591   0.12910   0.96768   1.000
    O37     O    0.56443   0.17986   0.97599   1.000
    O38     O    0.86759   0.18044   0.97538   1.000
    O39     O    0.70862   0.05301   0.02704   1.000
    Zr40    Zr   0.78408   0.62921   0.96745   1.000
    O41     O    0.93487   0.67972   0.97585   1.000
    O42     O    0.63175   0.68036   0.97520   1.000
    O43     O    0.79084   0.55302   0.02676   1.000
    O44     O    0.27723   0.90269   0.43228   1.000
    O45     O    0.74066   0.15016   0.40254   1.000
    O46     O    0.24101   0.34861   0.90204   1.000
    O47     O    0.72246   0.09673   0.93260   1.000
    O48     O    0.25735   0.84686   0.90196   1.000
    O49     O    0.77730   0.59730   0.93215   1.000
    O50     O    0.22223   0.39995   0.43210   1.000
    O51     O    0.75427   0.64976   0.40258   1.000
loop_
    _geom_bond_atom_site_label_1
    _geom_bond_atom_site_label_2
    _geom_bond_distance
    _geom_bond_site_symmetry_2
    _ccdc_geom_bond_type
    Zr12   O13       1.25711      .   S
    N11    O13       2.80292  1_545   S
    Zr12   O14       1.29260      .   S
    N11    O14       2.87602  1_645   S
    Zr12   O15       1.67201      .   S
    N4     O15       3.96625      .   S
    Zr16   O17       1.67427      .   S
    N1     O17       3.97031      .   S
    Zr16   O18       1.25314      .   S
    N6     O18       2.79320  1_655   S
    Zr16   O19       1.29291      .   S
    N6     O19       2.87857      .   S
    Zr20   O21       1.67988      .   S
    N1     O21       3.98057  1_545   S
    Zr20   O22       1.28048      .   S
    N2     O22       2.86167  1_655   S
    Zr20   O23       1.26862      .   S
    N2     O23       2.81675      .   S
    Zr24   O25       1.67482      .   S
    N8     O25       3.97100      .   S
    Zr24   O26       1.23898      .   S
    N3     O26       2.75258  1_565   S
    Zr24   O27       1.27594      .   S
    N3     O27       2.83307  1_465   S
    Zr28   O29       1.25974      .   S
    N9     O29       2.80748  1_455   S
    Zr28   O30       1.28531      .   S
    N9     O30       2.86358      .   S
    Zr28   O31       1.67435      .   S
    N0     O31       3.97021      .   S
    Zr32   O33       1.67918      .   S
    N4     O33       3.97907      .   S
    Zr32   O34       1.27492      .   S
    N10    O34       2.84657      .   S
    Zr32   O35       1.27026      .   S
    N10    O35       2.82381  1_655   S
    Zr36   O37       1.27255      .   S
    N7     O37       2.82690      .   S
    Zr36   O38       1.28109      .   S
    N7     O38       2.85769  1_455   S
    Zr36   O39       1.67517  1_556   S
    N0     O39       3.97195  1_565   S
    Zr40   O41       1.27186      .   S
    N5     O41       2.82287  1_455   S
    Zr40   O42       1.27865      .   S
    N5     O42       2.85469      .   S
    Zr40   O43       1.67520  1_556   S
    N8     O43       3.97214      .   S
    Zr20   O44       0.90450      .   S
    N3     O44       1.97270      .   S
    Zr24   O45       0.89265      .   S
    N10    O45       1.94044      .   S
    Zr16   O46       0.90010      .   S
    N7     O46       1.95681      .   S
    N11    O47       1.94073      .   S
    Zr36   O47       0.89248      .   S
    Zr12   O48       0.89623      .   S
    N5     O48       1.94930      .   S
    N6     O49       1.94469      .   S
    Zr40   O49       0.89410      .   S
    Zr32   O50       0.89136      .   S
    N9     O50       1.94000      .   S
    N2     O51       1.94191      .   S
    Zr28   O51       0.89291      .   S
