# CIF file generated by openbabel 2.4.90, see http://openbabel.sf.net
data_I
_chemical_name_common ''
_cell_length_a 6.9295
_cell_length_b 13.793
_cell_length_c 21.991
_cell_angle_alpha 89.959
_cell_angle_beta 89.755
_cell_angle_gamma 89.82
_space_group_name_H-M_alt 'P 1'
_space_group_name_Hall 'P 1'
loop_
    _symmetry_equiv_pos_as_xyz
    x,y,z
loop_
    _atom_site_label
    _atom_site_type_symbol
    _atom_site_fract_x
    _atom_site_fract_y
    _atom_site_fract_z
    _atom_site_occupancy
    N0      N    0.69522   0.87225   0.16767   1.000
    N1      N    0.30246   0.12581   0.66722   1.000
    N2      N    0.77965   0.70954   0.48205   1.000
    N3      N    0.26158   0.96776   0.35254   1.000
    N4      N    0.19625   0.62540   0.66688   1.000
    N5      N    0.27952   0.78775   0.98218   1.000
    N6      N    0.76123   0.53944   0.85172   1.000
    N7      N    0.21816   0.28836   0.98232   1.000
    N8      N    0.80267   0.37215   0.16734   1.000
    N9      N    0.23745   0.45941   0.35226   1.000
    N10     N    0.71895   0.20968   0.48221   1.000
    N11     N    0.73763   0.03820   0.85249   1.000
    Zr12    Zr   0.24778   0.87949   0.86684   1.000
    O13     O    0.39655   0.92988   0.85874   1.000
    O14     O    0.23143   0.84767   0.90264   1.000
    O15     O    0.28328   0.84606   0.90128   1.000
    O16     O    0.09340   0.93087   0.85930   1.000
    O17     O    0.23065   0.80434   0.80749   1.000
    Zr18    Zr   0.25122   0.38168   0.86688   1.000
    O19     O    0.26850   0.30593   0.80763   1.000
    O20     O    0.10249   0.43172   0.85840   1.000
    O21     O    0.40562   0.43269   0.85914   1.000
    O22     O    0.26697   0.34917   0.90265   1.000
    O23     O    0.21505   0.34805   0.90142   1.000
    Zr24    Zr   0.28386   0.86806   0.46716   1.000
    O25     O    0.29040   0.94442   0.52659   1.000
    O26     O    0.13174   0.81682   0.47449   1.000
    O27     O    0.43490   0.81774   0.47570   1.000
    O28     O    0.30325   0.90216   0.43179   1.000
    O29     O    0.25121   0.90321   0.43278   1.000
    Zr30    Zr   0.75047   0.11729   0.36771   1.000
    O31     O    0.71468   0.15068   0.40201   1.000
    O32     O    0.76787   0.19274   0.30824   1.000
    O33     O    0.60206   0.06937   0.35927   1.000
    O34     O    0.90519   0.06836   0.35995   1.000
    O35     O    0.76664   0.14964   0.40307   1.000
    Zr36    Zr   0.74330   0.61695   0.36778   1.000
    O37     O    0.89360   0.56709   0.35926   1.000
    O38     O    0.59043   0.56602   0.35992   1.000
    O39     O    0.72828   0.64896   0.40338   1.000
    O40     O    0.78026   0.65056   0.40178   1.000
    O41     O    0.72707   0.69257   0.30841   1.000
    Zr42    Zr   0.21575   0.36732   0.46705   1.000
    O43     O    0.24827   0.40023   0.43254   1.000
    O44     O    0.19620   0.39966   0.43167   1.000
    O45     O    0.20865   0.44384   0.52638   1.000
    O46     O    0.36762   0.31645   0.47477   1.000
    O47     O    0.06447   0.31723   0.47552   1.000
    Zr48    Zr   0.71591   0.12910   0.96768   1.000
    O49     O    0.69644   0.09704   0.93222   1.000
    O50     O    0.56443   0.17986   0.97599   1.000
    O51     O    0.86759   0.18044   0.97538   1.000
    O52     O    0.74848   0.09643   0.93298   1.000
    O53     O    0.70862   0.05301   0.02704   1.000
    Zr54    Zr   0.78408   0.62921   0.96745   1.000
    O55     O    0.93487   0.67972   0.97585   1.000
    O56     O    0.63175   0.68036   0.97520   1.000
    O57     O    0.80332   0.59786   0.93163   1.000
    O58     O    0.75128   0.59675   0.93266   1.000
    O59     O    0.79084   0.55302   0.02676   1.000
loop_
    _geom_bond_atom_site_label_1
    _geom_bond_atom_site_label_2
    _geom_bond_distance
    _geom_bond_site_symmetry_2
    _ccdc_geom_bond_type
    Zr12   O13       1.25711      .   S
    N11    O13       2.80292  1_545   S
    Zr12   O14       0.90796      .   S
    N5     O14       1.96335      .   S
    Zr12   O15       0.92047      .   S
    N5     O15       1.95191      .   S
    Zr12   O16       1.29260      .   S
    N11    O16       2.87602  1_645   S
    Zr12   O17       1.67201      .   S
    N4     O17       3.96625      .   S
    Zr18   O19       1.67427      .   S
    N1     O19       3.97031      .   S
    Zr18   O20       1.25314      .   S
    N6     O20       2.79320  1_655   S
    Zr18   O21       1.29291      .   S
    N6     O21       2.87857      .   S
    Zr18   O22       0.91212      .   S
    N7     O22       1.97023      .   S
    Zr18   O23       0.92392      .   S
    N7     O23       1.96002      .   S
    Zr24   O25       1.67988      .   S
    N1     O25       3.98057  1_545   S
    Zr24   O26       1.28048      .   S
    N2     O26       2.86167  1_655   S
    Zr24   O27       1.26862      .   S
    N2     O27       2.81675      .   S
    Zr24   O28       0.91830      .   S
    N3     O28       1.98494      .   S
    Zr24   O29       0.92644      .   S
    N3     O29       1.97697      .   S
    Zr30   O31       0.91695      .   S
    N10    O31       1.94334      .   S
    Zr30   O32       1.67482      .   S
    N8     O32       3.97100      .   S
    Zr30   O33       1.23898      .   S
    N3     O33       2.75258  1_565   S
    Zr30   O34       1.27594      .   S
    N3     O34       2.83307  1_465   S
    Zr30   O35       0.90447      .   S
    N10    O35       1.95430      .   S
    Zr36   O37       1.25974      .   S
    N9     O37       2.80748  1_455   S
    Zr36   O38       1.28531      .   S
    N9     O38       2.86358      .   S
    Zr36   O39       0.90438      .   S
    N2     O39       1.95647      .   S
    Zr36   O40       0.91781      .   S
    N2     O40       1.94421      .   S
    Zr36   O41       1.67435      .   S
    N0     O41       3.97021      .   S
    Zr42   O43       0.91195      .   S
    N9     O43       1.94602      .   S
    Zr42   O44       0.90705      .   S
    N9     O44       1.95080      .   S
    Zr42   O45       1.67918      .   S
    N4     O45       3.97907      .   S
    Zr42   O46       1.27492      .   S
    N10    O46       2.84657      .   S
    Zr42   O47       1.27026      .   S
    N10    O47       2.82381  1_655   S
    Zr48   O49       0.90746      .   S
    N11    O49       1.95216      .   S
    Zr48   O50       1.27255      .   S
    N7     O50       2.82690      .   S
    Zr48   O51       1.28109      .   S
    N7     O51       2.85769  1_455   S
    Zr48   O52       0.91366      .   S
    N11    O52       1.94606      .   S
    Zr48   O53       1.67517  1_556   S
    N0     O53       3.97195  1_565   S
    Zr54   O55       1.27186      .   S
    N5     O55       2.82287  1_455   S
    Zr54   O56       1.27865      .   S
    N5     O56       2.85469      .   S
    Zr54   O57       0.90789      .   S
    N6     O57       1.95718      .   S
    Zr54   O58       0.91649      .   S
    N6     O58       1.94897      .   S
    Zr54   O59       1.67520  1_556   S
    N8     O59       3.97214      .   S
