# CIF file generated by openbabel 2.4.90, see http://openbabel.sf.net
data_I
_chemical_name_common ''
_cell_length_a 6.9295
_cell_length_b 13.793
_cell_length_c 21.991
_cell_angle_alpha 89.959
_cell_angle_beta 89.755
_cell_angle_gamma 89.82
_space_group_name_H-M_alt 'P 1'
_space_group_name_Hall 'P 1'
loop_
    _symmetry_equiv_pos_as_xyz
    x,y,z
loop_
    _atom_site_label
    _atom_site_type_symbol
    _atom_site_fract_x
    _atom_site_fract_y
    _atom_site_fract_z
    _atom_site_occupancy
    C0      C    0.24778   0.87949   0.86684   1.000
    C1      C    0.78408   0.62921   0.96745   1.000
    C2      C    0.75047   0.11729   0.36771   1.000
    C3      C    0.21575   0.36732   0.46705   1.000
    C4      C    0.25122   0.38168   0.86688   1.000
    C5      C    0.71591   0.12910   0.96768   1.000
    C6      C    0.74330   0.61695   0.36778   1.000
    C7      C    0.28386   0.86806   0.46716   1.000
    C8      C    0.29342   0.78980   0.05151   1.000
    C9      C    0.28727   0.89330   0.00168   1.000
    C10     C    0.75196   0.54191   0.78199   1.000
    C11     C    0.75612   0.64512   0.83201   1.000
    C12     C    0.10562   0.89325   0.73529   1.000
    C13     C    0.08743   0.78559   0.64370   1.000
    C14     C    0.29611   0.55252   0.75838   1.000
    C15     C    0.31171   0.66991   0.84297   1.000
    C16     C    0.05652   0.47218   0.68929   1.000
    C17     C    0.06409   0.36314   0.59805   1.000
    C18     C    0.32307   0.57385   0.49164   1.000
    C19     C    0.31752   0.69306   0.57585   1.000
    C20     C    0.70646   0.20767   0.55192   1.000
    C21     C    0.71438   0.10410   0.50227   1.000
    C22     C    0.24736   0.45831   0.28252   1.000
    C23     C    0.24008   0.35411   0.33179   1.000
    C24     C    0.89074   0.10415   0.23552   1.000
    C25     C    0.90883   0.21187   0.14384   1.000
    C26     C    0.70671   0.44562   0.25943   1.000
    C27     C    0.69100   0.32814   0.34418   1.000
    C28     C    0.94227   0.52555   0.18903   1.000
    C29     C    0.93518   0.63413   0.09748   1.000
    C30     C    0.67517   0.42324   0.99237   1.000
    C31     C    0.67996   0.30441   0.07688   1.000
    C32     C    0.20330   0.28926   0.05163   1.000
    C33     C    0.21064   0.39357   0.00248   1.000
    C34     C    0.74591   0.04100   0.78271   1.000
    C35     C    0.73932   0.14396   0.83285   1.000
    C36     C    0.39418   0.39353   0.73487   1.000
    C37     C    0.41064   0.28550   0.64336   1.000
    C38     C    0.20494   0.05339   0.75939   1.000
    C39     C    0.19022   0.17120   0.84383   1.000
    C40     C    0.44350   0.97244   0.68901   1.000
    C41     C    0.43506   0.86332   0.59789   1.000
    C42     C    0.17186   0.07394   0.49262   1.000
    C43     C    0.17768   0.19330   0.57674   1.000
    C44     C    0.79607   0.70852   0.55160   1.000
    C45     C    0.78854   0.60433   0.50250   1.000
    C46     C    0.25277   0.00000   0.28282   1.000
    C47     C    0.25837   0.85434   0.33255   1.000
    C48     C    0.60122   0.60513   0.23635   1.000
    C49     C    0.58602   0.71274   0.14454   1.000
    C50     C    0.79519   0.94476   0.25924   1.000
    C51     C    0.80849   0.82732   0.34400   1.000
    C52     C    0.55712   0.02615   0.18978   1.000
    C53     C    0.56543   0.13496   0.09833   1.000
    C54     C    0.82319   0.92288   0.99232   1.000
    C55     C    0.81709   0.80384   0.07672   1.000
    C56     C    0.45630   0.77420   0.96767   1.000
    C57     C    0.28425   0.81358   0.00416   1.000
    C58     C    0.09861   0.77740   0.97511   1.000
    C59     C    0.58381   0.52684   0.86491   1.000
    C60     C    0.75838   0.56539   0.82942   1.000
    C61     C    0.94198   0.52808   0.85939   1.000
    C62     C    0.15000   0.81753   0.73742   1.000
    C63     C    0.13888   0.75715   0.68700   1.000
    C64     C    0.19215   0.65931   0.69292   1.000
    C65     C    0.25273   0.62713   0.75016   1.000
    C66     C    0.26284   0.69241   0.79810   1.000
    C67     C    0.18884   0.59219   0.64056   1.000
    C68     C    0.11736   0.49747   0.64631   1.000
    C69     C    0.12267   0.43625   0.59617   1.000
    C70     C    0.26473   0.55452   0.53610   1.000
    C71     C    0.26096   0.62069   0.58375   1.000
    C72     C    0.54153   0.22211   0.46880   1.000
    C73     C    0.71523   0.18385   0.50457   1.000
    C74     C    0.89947   0.22106   0.47466   1.000
    C75     C    0.41493   0.47075   0.36517   1.000
    C76     C    0.24003   0.43388   0.32979   1.000
    C77     C    0.05681   0.47164   0.36039   1.000
    C78     C    0.84756   0.18002   0.23786   1.000
    C79     C    0.85859   0.24040   0.18736   1.000
    C80     C    0.80679   0.33840   0.19349   1.000
    C81     C    0.74843   0.37081   0.25105   1.000
    C82     C    0.73830   0.30546   0.29906   1.000
    C83     C    0.80954   0.40538   0.14100   1.000
    C84     C    0.88127   0.50009   0.14630   1.000
    C85     C    0.87623   0.56109   0.09603   1.000
    C86     C    0.73354   0.44263   0.03665   1.000
    C87     C    0.73699   0.37672   0.08448   1.000
    C88     C    0.04140   0.27563   0.96789   1.000
    C89     C    0.21316   0.31380   0.00443   1.000
    C90     C    0.39921   0.27751   0.97497   1.000
    C91     C    0.91561   0.02633   0.86493   1.000
    C92     C    0.73956   0.06423   0.83020   1.000
    C93     C    0.55728   0.02603   0.86089   1.000
    C94     C    0.34988   0.31795   0.73734   1.000
    C95     C    0.36008   0.25739   0.68695   1.000
    C96     C    0.30693   0.15973   0.69325   1.000
    C97     C    0.24791   0.12789   0.75086   1.000
    C98     C    0.23844   0.19342   0.79873   1.000
    C99     C    0.30898   0.09249   0.64092   1.000
    C100    C    0.38137   0.99773   0.64634   1.000
    C101    C    0.37557   0.93643   0.59628   1.000
    C102    C    0.23104   0.05469   0.53686   1.000
    C103    C    0.23508   0.12091   0.58446   1.000
    C104    C    0.95612   0.72256   0.46712   1.000
    C105    C    0.78520   0.68410   0.50445   1.000
    C106    C    0.59826   0.72012   0.47595   1.000
    C107    C    0.08388   0.97224   0.36561   1.000
    C108    C    0.25931   0.93409   0.33020   1.000
    C109    C    0.44211   0.00000   0.36037   1.000
    C110    C    0.64645   0.68059   0.23843   1.000
    C111    C    0.63699   0.74092   0.18789   1.000
    C112    C    0.69118   0.83845   0.19377   1.000
    C113    C    0.75117   0.87037   0.25107   1.000
    C114    C    0.75976   0.80507   0.29911   1.000
    C115    C    0.68890   0.90547   0.14130   1.000
    C116    C    0.61798   0.00050   0.14687   1.000
    C117    C    0.62371   0.06159   0.09665   1.000
    C118    C    0.76514   0.94251   0.03678   1.000
    C119    C    0.76093   0.87647   0.08454   1.000
    C120    C    0.21380   0.78651   0.79199   1.000
    C121    C    0.19794   0.46328   0.54203   1.000
    C122    C    0.78531   0.21114   0.29271   1.000
    C123    C    0.80096   0.53379   0.04217   1.000
    C124    C    0.28697   0.28741   0.79224   1.000
    C125    C    0.29896   0.96344   0.54247   1.000
    C126    C    0.70957   0.71127   0.29307   1.000
    C127    C    0.69892   0.03404   0.04260   1.000
    C128    C    0.46829   0.79552   0.91171   1.000
    C129    C    0.57452   0.72129   0.00000   1.000
    C130    C    0.05348   0.80842   0.92258   1.000
    C131    C    0.99953   0.71620   0.00517   1.000
    C132    C    0.56735   0.54901   0.92063   1.000
    C133    C    0.46639   0.47421   0.83531   1.000
    C134    C    0.98369   0.55793   0.91240   1.000
    C135    C    0.04137   0.46651   0.82942   1.000
    C136    C    0.52721   0.19962   0.41312   1.000
    C137    C    0.42429   0.27559   0.49847   1.000
    C138    C    0.94290   0.19126   0.42164   1.000
    C139    C    0.99912   0.28190   0.50446   1.000
    C140    C    0.43251   0.44643   0.42051   1.000
    C141    C    0.53205   0.52455   0.33596   1.000
    C142    C    0.01591   0.44186   0.41358   1.000
    C143    C    0.95738   0.53312   0.33062   1.000
    C144    C    0.02798   0.29929   0.91233   1.000
    C145    C    0.92487   0.22129   0.00000   1.000
    C146    C    0.44330   0.30824   0.92222   1.000
    C147    C    0.49956   0.21665   0.00493   1.000
    C148    C    0.93305   0.04951   0.92045   1.000
    C149    C    0.03303   0.97314   0.83521   1.000
    C150    C    0.51669   0.05438   0.91442   1.000
    C151    C    0.45822   0.96521   0.83074   1.000
    C152    C    0.96625   0.70066   0.41123   1.000
    C153    C    0.07535   0.77520   0.49601   1.000
    C154    C    0.55046   0.68782   0.42399   1.000
    C155    C    0.50058   0.78251   0.50567   1.000
    C156    C    0.06722   0.94988   0.42133   1.000
    C157    C    0.96600   0.02493   0.33602   1.000
    C158    C    0.48358   0.94141   0.41342   1.000
    C159    C    0.54095   0.03299   0.33053   1.000
    O160    O    0.82039   0.17520   0.98384   1.000
    O161    O    0.98313   0.24846   0.98395   1.000
    O162    O    0.67930   0.67525   0.98372   1.000
    O163    O    0.51541   0.74774   0.98384   1.000
    O164    O    0.28576   0.85344   0.00292   1.000
    O165    O    0.21190   0.35368   0.00346   1.000
    O166    O    0.28883   0.80169   0.02784   1.000
    O167    O    0.37027   0.79389   0.98592   1.000
    O168    O    0.19143   0.79549   0.98964   1.000
    O169    O    0.20823   0.30153   0.02803   1.000
    O170    O    0.12728   0.29471   0.98616   1.000
    O171    O    0.30618   0.29565   0.98970   1.000
    O172    O    0.60774   0.17288   0.98630   1.000
    O173    O    0.44938   0.24708   0.98995   1.000
    O174    O    0.89181   0.67271   0.98631   1.000
    O175    O    0.04907   0.74680   0.99014   1.000
    O176    O    0.76725   0.48821   0.03941   1.000
    O177    O    0.73527   0.40967   0.06057   1.000
    O178    O    0.70436   0.43294   0.01451   1.000
    O179    O    0.73203   0.98827   0.03969   1.000
    O180    O    0.76304   0.90949   0.06066   1.000
    O181    O    0.79416   0.93270   0.01455   1.000
    O182    O    0.83859   0.54744   0.06910   1.000
    O183    O    0.79252   0.58150   0.00481   1.000
    O184    O    0.66131   0.04782   0.06962   1.000
    O185    O    0.70742   0.08157   0.00514   1.000
    O186    O    0.78901   0.84015   0.08063   1.000
    O187    O    0.70848   0.34057   0.08068   1.000
    O188    O    0.77327   0.39105   0.11274   1.000
    O189    O    0.72492   0.89097   0.11292   1.000
    O190    O    0.90571   0.59761   0.09675   1.000
    O191    O    0.87875   0.53059   0.12117   1.000
    O192    O    0.59457   0.09828   0.09749   1.000
    O193    O    0.62084   0.03105   0.12176   1.000
    O194    O    0.84540   0.45274   0.14365   1.000
    O195    O    0.80816   0.37189   0.16725   1.000
    O196    O    0.65344   0.95298   0.14408   1.000
    O197    O    0.69004   0.87196   0.16753   1.000
    O198    O    0.88371   0.22613   0.16560   1.000
    O199    O    0.61150   0.72683   0.16622   1.000
    O200    O    0.91177   0.51282   0.16766   1.000
    O201    O    0.58755   0.01332   0.16833   1.000
    O202    O    0.83269   0.28940   0.19043   1.000
    O203    O    0.85307   0.21021   0.21261   1.000
    O204    O    0.66408   0.78969   0.19083   1.000
    O205    O    0.64172   0.71076   0.21316   1.000
    O206    O    0.77761   0.35460   0.22227   1.000
    O207    O    0.72117   0.85441   0.22242   1.000
    O208    O    0.86915   0.14209   0.23669   1.000
    O209    O    0.62384   0.64286   0.23739   1.000
    O210    O    0.81643   0.19558   0.26528   1.000
    O211    O    0.67801   0.69593   0.26575   1.000
    O212    O    0.72757   0.40822   0.25524   1.000
    O213    O    0.74337   0.33814   0.27506   1.000
    O214    O    0.77318   0.90757   0.25516   1.000
    O215    O    0.75547   0.83772   0.27509   1.000
    O216    O    0.24369   0.44610   0.30615   1.000
    O217    O    0.25604   0.96704   0.30651   1.000
    O218    O    0.76181   0.25830   0.29588   1.000
    O219    O    0.76789   0.16422   0.33021   1.000
    O220    O    0.73467   0.75817   0.29609   1.000
    O221    O    0.72644   0.66411   0.33043   1.000
    O222    O    0.71465   0.31680   0.32162   1.000
    O223    O    0.78413   0.81620   0.32156   1.000
    O224    O    0.24005   0.39400   0.33079   1.000
    O225    O    0.14842   0.45276   0.34509   1.000
    O226    O    0.32748   0.45232   0.34748   1.000
    O227    O    0.25884   0.89421   0.33138   1.000
    O228    O    0.35071   0.96704   0.34528   1.000
    O229    O    0.17160   0.95316   0.34790   1.000
    O230    O    0.49153   0.01649   0.34545   1.000
    O231    O    0.64571   0.07514   0.34912   1.000
    O232    O    0.00710   0.50238   0.34551   1.000
    O233    O    0.85034   0.57503   0.34920   1.000
    O234    O    0.47349   0.49765   0.35056   1.000
    O235    O    0.63768   0.57075   0.35187   1.000
    O236    O    0.02494   0.99858   0.35082   1.000
    O237    O    0.85824   0.07111   0.35186   1.000
    O238    O    0.46285   0.97070   0.38690   1.000
    O239    O    0.03636   0.45675   0.38699   1.000
    O240    O    0.42372   0.45859   0.39284   1.000
    O241    O    0.07555   0.96106   0.39347   1.000
    O242    O    0.63884   0.15846   0.39041   1.000
    O243    O    0.84668   0.15427   0.39467   1.000
    O244    O    0.85478   0.65881   0.38950   1.000
    O245    O    0.64688   0.65239   0.39589   1.000
    O246    O    0.96118   0.71161   0.43917   1.000
    O247    O    0.53437   0.21087   0.44096   1.000
    O248    O    0.38372   0.90474   0.44029   1.000
    O249    O    0.11583   0.40459   0.44032   1.000
    O250    O    0.32413   0.40688   0.44378   1.000
    O251    O    0.17554   0.90897   0.44425   1.000
    O252    O    0.92119   0.20616   0.44815   1.000
    O253    O    0.57436   0.70397   0.44997   1.000
    O254    O    0.32002   0.32145   0.48276   1.000
    O255    O    0.10743   0.32461   0.48576   1.000
    O256    O    0.20685   0.41530   0.50454   1.000
    O257    O    0.01574   0.74888   0.48156   1.000
    O258    O    0.87066   0.70333   0.48578   1.000
    O259    O    0.17961   0.82163   0.48158   1.000
    O260    O    0.39222   0.82529   0.48641   1.000
    O261    O    0.29141   0.91575   0.50481   1.000
    O262    O    0.48291   0.24885   0.48363   1.000
    O263    O    0.62838   0.20298   0.48669   1.000
    O264    O    0.94929   0.25148   0.48956   1.000
    O265    O    0.80735   0.20245   0.48961   1.000
    O266    O    0.69173   0.70211   0.49020   1.000
    O267    O    0.54942   0.75132   0.49081   1.000
    O268    O    0.29390   0.56418   0.51387   1.000
    O269    O    0.20145   0.06431   0.51474   1.000
    O270    O    0.71481   0.14397   0.50342   1.000
    O271    O    0.78687   0.64422   0.50347   1.000
    O272    O    0.79063   0.69631   0.52803   1.000
    O273    O    0.71084   0.19576   0.52824   1.000
    O274    O    0.23133   0.50890   0.53907   1.000
    O275    O    0.26284   0.58761   0.55993   1.000
    O276    O    0.26500   0.00907   0.53966   1.000
    O277    O    0.23306   0.08780   0.56066   1.000
    O278    O    0.16031   0.44976   0.56910   1.000
    O279    O    0.33726   0.94994   0.56937   1.000
    O280    O    0.28924   0.65688   0.57980   1.000
    O281    O    0.20638   0.15711   0.58060   1.000
    O282    O    0.22490   0.60644   0.61216   1.000
    O283    O    0.27203   0.10670   0.61269   1.000
    O284    O    0.09338   0.39970   0.59711   1.000
    O285    O    0.12001   0.46686   0.62124   1.000
    O286    O    0.40531   0.89988   0.59708   1.000
    O287    O    0.37847   0.96708   0.62131   1.000
    O288    O    0.15310   0.54483   0.64343   1.000
    O289    O    0.19050   0.62575   0.66674   1.000
    O290    O    0.34518   0.04511   0.64363   1.000
    O291    O    0.30796   0.12611   0.66708   1.000
    O292    O    0.38536   0.27144   0.66515   1.000
    O293    O    0.11316   0.77137   0.66535   1.000
    O294    O    0.08694   0.48482   0.66780   1.000
    O295    O    0.41243   0.98509   0.66767   1.000
    O296    O    0.33351   0.20856   0.69010   1.000
    O297    O    0.35498   0.28767   0.71214   1.000
    O298    O    0.16552   0.70823   0.68996   1.000
    O299    O    0.14444   0.78734   0.71221   1.000
    O300    O    0.22244   0.64322   0.72154   1.000
    O301    O    0.27742   0.14381   0.72205   1.000
    O302    O    0.37203   0.35574   0.73611   1.000
    O303    O    0.12781   0.85539   0.73636   1.000
    O304    O    0.31843   0.30268   0.76479   1.000
    O305    O    0.18190   0.80202   0.76470   1.000
    O306    O    0.27442   0.58983   0.75427   1.000
    O307    O    0.25779   0.65977   0.77413   1.000
    O308    O    0.22642   0.09064   0.75512   1.000
    O309    O    0.24317   0.16065   0.77479   1.000
    O310    O    0.75517   0.55365   0.80571   1.000
    O311    O    0.74273   0.05261   0.80645   1.000
    O312    O    0.23832   0.73946   0.79504   1.000
    O313    O    0.23079   0.83300   0.82941   1.000
    O314    O    0.26271   0.24041   0.79549   1.000
    O315    O    0.26910   0.33454   0.82956   1.000
    O316    O    0.28728   0.68116   0.82053   1.000
    O317    O    0.21433   0.18231   0.82128   1.000
    O318    O    0.99168   0.49730   0.84440   1.000
    O319    O    0.14630   0.42409   0.84815   1.000
    O320    O    0.75725   0.60525   0.83072   1.000
    O321    O    0.85018   0.54674   0.84441   1.000
    O322    O    0.67109   0.54611   0.84717   1.000
    O323    O    0.73944   0.10410   0.83152   1.000
    O324    O    0.64842   0.04513   0.84554   1.000
    O325    O    0.82759   0.04528   0.84757   1.000
    O326    O    0.50775   0.99562   0.84581   1.000
    O327    O    0.35300   0.92235   0.84879   1.000
    O328    O    0.97432   0.99973   0.85007   1.000
    O329    O    0.14041   0.92631   0.85103   1.000
    O330    O    0.52510   0.50052   0.85011   1.000
    O331    O    0.35881   0.42795   0.85109   1.000
    O332    O    0.96284   0.54300   0.88589   1.000
    O333    O    0.53699   0.04020   0.88766   1.000
    O334    O    0.57558   0.53792   0.89277   1.000
    O335    O    0.92433   0.03792   0.89269   1.000
    O336    O    0.35804   0.83750   0.88928   1.000
    O337    O    0.15063   0.84395   0.89471   1.000
    O338    O    0.13960   0.34048   0.88960   1.000
    O339    O    0.34726   0.34496   0.89455   1.000
    O340    O    0.46230   0.78486   0.93969   1.000
    O341    O    0.03469   0.28746   0.94011   1.000
    O342    O    0.88389   0.59357   0.93992   1.000
    O343    O    0.61630   0.09174   0.94105   1.000
    O344    O    0.82448   0.08930   0.94406   1.000
    O345    O    0.67572   0.58911   0.94404   1.000
    O346    O    0.42126   0.29287   0.94859   1.000
    O347    O    0.07604   0.79291   0.94885   1.000
loop_
    _geom_bond_atom_site_label_1
    _geom_bond_atom_site_label_2
    _geom_bond_distance
    _geom_bond_site_symmetry_2
    _ccdc_geom_bond_type
    C145   O160      1.02959  1_554   S
    C5     O160      1.02959      .   S
    C145   O161      0.65395  1_554   S
    C88    O161      0.65395  1_455   S
    C129   O162      1.02653  1_554   S
    C1     O162      1.02653      .   S
    C129   O163      0.65372  1_554   S
    C56    O163      0.65372      .   S
    C9     O164      0.55061      .   S
    C57    O164      0.55061      .   S
    C33    O165      0.55056      .   S
    C89    O165      0.55056      .   S
    C57    O166      0.54674      .   S
    C8     O166      0.54674      .   S
    C57    O167      0.76628  1_554   S
    C56    O167      0.76628      .   S
    C57    O168      0.76216  1_554   S
    C58    O168      0.76216      .   S
    C89    O169      0.54673      .   S
    C32    O169      0.54673      .   S
    C89    O170      0.76684  1_554   S
    C88    O170      0.76684      .   S
    C89    O171      0.76187  1_554   S
    C90    O171      0.76187      .   S
    C147   O172      1.04361  1_554   S
    C5     O172      1.04361      .   S
    C147   O173      0.63676  1_554   S
    C90    O173      0.63676      .   S
    C131   O174      1.04643  1_554   S
    C1     O174      1.04643      .   S
    C131   O175      0.63634  1_654   S
    C58    O175      0.63634      .   S
    C86    O176      0.67420      .   S
    C123   O176      0.67420      .   S
    C86    O177      0.69500      .   S
    C87    O177      0.69500      .   S
    C86    O178      0.54498      .   S
    C30    O178      0.54498  1_556   S
    C118   O179      0.67392      .   S
    C127   O179      0.67392  1_545   S
    C118   O180      0.69502      .   S
    C119   O180      0.69502      .   S
    C118   O181      0.54491      .   S
    C54    O181      0.54491  1_556   S
    C123   O182      0.67532      .   S
    C85    O182      0.67532      .   S
    C123   O183      1.05397      .   S
    C1     O183      1.05397  1_556   S
    C127   O184      0.67516      .   S
    C117   O184      0.67516      .   S
    C127   O185      1.05402      .   S
    C5     O185      1.05402  1_556   S
    C55    O186      0.54356      .   S
    C119   O186      0.54356      .   S
    C31    O187      0.54359      .   S
    C87    O187      0.54359      .   S
    C87    O188      0.70022      .   S
    C83    O188      0.70022      .   S
    C119   O189      0.70015      .   S
    C115   O189      0.70015      .   S
    C85    O190      0.54445      .   S
    C29    O190      0.54445      .   S
    C85    O191      0.69459      .   S
    C84    O191      0.69459      .   S
    C117   O192      0.54446      .   S
    C53    O192      0.54446      .   S
    C117   O193      0.69461      .   S
    C116   O193      0.69461      .   S
    C83    O194      0.70210      .   S
    C84    O194      0.70210      .   S
    C83    O195      0.73905      .   S
    C80    O195      0.73905      .   S
    C115   O196      0.70184      .   S
    C116   O196      0.70184  1_545   S
    C115   O197      0.73906      .   S
    C112   O197      0.73906      .   S
    C25    O198      0.54523      .   S
    C79    O198      0.54523      .   S
    C49    O199      0.54526      .   S
    C111   O199      0.54526      .   S
    C84    O200      0.54537      .   S
    C28    O200      0.54537      .   S
    C116   O201      0.54536      .   S
    C52    O201      0.54536      .   S
    C79    O202      0.70195      .   S
    C80    O202      0.70195      .   S
    C79    O203      0.69479      .   S
    C78    O203      0.69479      .   S
    C111   O204      0.70196      .   S
    C112   O204      0.70196      .   S
    C111   O205      0.69478      .   S
    C110   O205      0.69478      .   S
    C80    O206      0.70016      .   S
    C81    O206      0.70016      .   S
    C112   O207      0.70019      .   S
    C113   O207      0.70019      .   S
    C24    O208      0.54439      .   S
    C78    O208      0.54439      .   S
    C48    O209      0.54445      .   S
    C110   O209      0.54445      .   S
    C78    O210      0.67457      .   S
    C122   O210      0.67457      .   S
    C110   O211      0.67468      .   S
    C126   O211      0.67468      .   S
    C81    O212      0.54323      .   S
    C26    O212      0.54323      .   S
    C81    O213      0.69467      .   S
    C82    O213      0.69467      .   S
    C113   O214      0.54332      .   S
    C50    O214      0.54332      .   S
    C113   O215      0.69460      .   S
    C114   O215      0.69460      .   S
    C22    O216      0.54674      .   S
    C76    O216      0.54674      .   S
    C46    O217      0.69154  1_545   S
    C108   O217      0.69154      .   S
    C122   O218      0.67368      .   S
    C82    O218      0.67368      .   S
    C122   O219      1.05471      .   S
    C2     O219      1.05471      .   S
    C126   O220      0.67376      .   S
    C114   O220      0.67376      .   S
    C126   O221      1.05413      .   S
    C6     O221      1.05413      .   S
    C82    O222      0.54467      .   S
    C27    O222      0.54467      .   S
    C114   O223      0.54461      .   S
    C51    O223      0.54461      .   S
    C76    O224      0.55059      .   S
    C23    O224      0.55059      .   S
    C76    O225      0.76241      .   S
    C77    O225      0.76241      .   S
    C76    O226      0.76569      .   S
    C75    O226      0.76569      .   S
    C108   O227      0.55063      .   S
    C47    O227      0.55063      .   S
    C108   O228      0.84948      .   S
    C109   O228      0.84948  1_545   S
    C108   O229      0.76643      .   S
    C107   O229      0.76643      .   S
    C159   O230      0.52545      .   S
    C109   O230      0.52545      .   S
    C159   O231      1.01866      .   S
    C2     O231      1.01866      .   S
    C143   O232      0.63669  1_655   S
    C77    O232      0.63669      .   S
    C143   O233      1.02296      .   S
    C6     O233      1.02296      .   S
    C141   O234      0.63650      .   S
    C75    O234      0.63650      .   S
    C141   O235      1.03423      .   S
    C6     O235      1.03423      .   S
    C157   O236      0.63617  1_645   S
    C107   O236      0.63617      .   S
    C157   O237      1.03920      .   S
    C2     O237      1.03920      .   S
    C109   O238      0.72408  1_545   S
    C158   O238      0.72408      .   S
    C77    O239      0.63535      .   S
    C142   O239      0.63535      .   S
    C75    O240      0.63425      .   S
    C140   O240      0.63425      .   S
    C107   O241      0.63409      .   S
    C156   O241      0.63409      .   S
    C2     O242      1.07908      .   S
    C136   O242      1.07908      .   S
    C2     O243      1.03069      .   S
    C138   O243      1.03069      .   S
    C6     O244      1.07913      .   S
    C152   O244      1.07913      .   S
    C6     O245      1.03058      .   S
    C154   O245      1.03058      .   S
    C152   O246      0.63371      .   S
    C104   O246      0.63371      .   S
    C136   O247      0.63396      .   S
    C72    O247      0.63396      .   S
    C158   O248      1.04025      .   S
    C7     O248      1.04025      .   S
    C142   O249      1.04409      .   S
    C3     O249      1.04409      .   S
    C140   O250      1.05946      .   S
    C3     O250      1.05946      .   S
    C156   O251      1.06579      .   S
    C7     O251      1.06579      .   S
    C138   O252      0.63558      .   S
    C74    O252      0.63558      .   S
    C154   O253      0.63615      .   S
    C106   O253      0.63615      .   S
    C3     O254      1.02006      .   S
    C137   O254      1.02006      .   S
    C3     O255      1.03897      .   S
    C139   O255      1.03897  1_655   S
    C3     O256      1.05904      .   S
    C121   O256      1.05904      .   S
    C104   O257      0.63687  1_655   S
    C153   O257      0.63687      .   S
    C104   O258      0.76702      .   S
    C105   O258      0.76702      .   S
    C7     O259      1.01650      .   S
    C153   O259      1.01650      .   S
    C7     O260      1.04439      .   S
    C155   O260      1.04439      .   S
    C7     O261      1.05944      .   S
    C125   O261      1.05944      .   S
    C72    O262      0.63678      .   S
    C137   O262      0.63678      .   S
    C72    O263      0.76640      .   S
    C73    O263      0.76640      .   S
    C74    O264      0.63615      .   S
    C139   O264      0.63615      .   S
    C74    O265      0.76201      .   S
    C73    O265      0.76201      .   S
    C106   O266      0.76164      .   S
    C105   O266      0.76164      .   S
    C106   O267      0.63621      .   S
    C155   O267      0.63621      .   S
    C18    O268      0.54485      .   S
    C70    O268      0.54485      .   S
    C42    O269      0.54480      .   S
    C102   O269      0.54480      .   S
    C21    O270      0.55061      .   S
    C73    O270      0.55061      .   S
    C45    O271      0.55060      .   S
    C105   O271      0.55060      .   S
    C105   O272      0.54670      .   S
    C44    O272      0.54670      .   S
    C73    O273      0.54672      .   S
    C20    O273      0.54672      .   S
    C70    O274      0.67414      .   S
    C121   O274      0.67414      .   S
    C70    O275      0.69510      .   S
    C71    O275      0.69510      .   S
    C102   O276      0.67402      .   S
    C125   O276      0.67402  1_565   S
    C102   O277      0.69509      .   S
    C103   O277      0.69509      .   S
    C121   O278      0.67523      .   S
    C69    O278      0.67523      .   S
    C125   O279      0.67536      .   S
    C101   O279      0.67536      .   S
    C19    O280      0.54356      .   S
    C71    O280      0.54356      .   S
    C43    O281      0.54356      .   S
    C103   O281      0.54356      .   S
    C71    O282      0.70007      .   S
    C67    O282      0.70007      .   S
    C103   O283      0.70018      .   S
    C99    O283      0.70018      .   S
    C69    O284      0.54445      .   S
    C17    O284      0.54445      .   S
    C69    O285      0.69472      .   S
    C68    O285      0.69472      .   S
    C101   O286      0.54439      .   S
    C41    O286      0.54439      .   S
    C101   O287      0.69469      .   S
    C100   O287      0.69469      .   S
    C67    O288      0.70208      .   S
    C68    O288      0.70208      .   S
    C67    O289      0.73912      .   S
    C64    O289      0.73912      .   S
    C99    O290      0.70180      .   S
    C100   O290      0.70180  1_565   S
    C99    O291      0.73927      .   S
    C96    O291      0.73927      .   S
    C37    O292      0.54530      .   S
    C95    O292      0.54530      .   S
    C13    O293      0.54524      .   S
    C63    O293      0.54524      .   S
    C68    O294      0.54539      .   S
    C16    O294      0.54539      .   S
    C100   O295      0.54538      .   S
    C40    O295      0.54538      .   S
    C95    O296      0.70203      .   S
    C96    O296      0.70203      .   S
    C95    O297      0.69489      .   S
    C94    O297      0.69489      .   S
    C63    O298      0.70202      .   S
    C64    O298      0.70202      .   S
    C63    O299      0.69479      .   S
    C62    O299      0.69479      .   S
    C64    O300      0.70008      .   S
    C65    O300      0.70008      .   S
    C96    O301      0.70020      .   S
    C97    O301      0.70020      .   S
    C36    O302      0.54444      .   S
    C94    O302      0.54444      .   S
    C12    O303      0.54441      .   S
    C62    O303      0.54441      .   S
    C94    O304      0.67472      .   S
    C124   O304      0.67472      .   S
    C62    O305      0.67475      .   S
    C120   O305      0.67475      .   S
    C65    O306      0.54319      .   S
    C14    O306      0.54319      .   S
    C65    O307      0.69449      .   S
    C66    O307      0.69449      .   S
    C97    O308      0.54332      .   S
    C38    O308      0.54332      .   S
    C97    O309      0.69464      .   S
    C98    O309      0.69464      .   S
    C10    O310      0.54675      .   S
    C60    O310      0.54675      .   S
    C34    O311      0.54669      .   S
    C92    O311      0.54669      .   S
    C120   O312      0.67373      .   S
    C66    O312      0.67373      .   S
    C120   O313      1.05096      .   S
    C0     O313      1.05096      .   S
    C124   O314      0.67379      .   S
    C98    O314      0.67379      .   S
    C124   O315      1.05397      .   S
    C4     O315      1.05397      .   S
    C66    O316      0.54459      .   S
    C15    O316      0.54459      .   S
    C98    O317      0.54468      .   S
    C39    O317      0.54468      .   S
    C135   O318      0.63699  1_455   S
    C61    O318      0.63699      .   S
    C135   O319      1.01986      .   S
    C4     O319      1.01986      .   S
    C60    O320      0.55062      .   S
    C11    O320      0.55062      .   S
    C60    O321      0.76163      .   S
    C61    O321      0.76163      .   S
    C60    O322      0.76659      .   S
    C59    O322      0.76659      .   S
    C92    O323      0.55065      .   S
    C35    O323      0.55065      .   S
    C92    O324      0.76238      .   S
    C93    O324      0.76238      .   S
    C92    O325      0.76625      .   S
    C91    O325      0.76625      .   S
    C151   O326      0.63696      .   S
    C93    O326      0.63696  1_545   S
    C151   O327      1.01911      .   S
    C0     O327      1.01911      .   S
    C149   O328      0.63638  1_455   S
    C91    O328      0.63638  1_545   S
    C149   O329      1.04428      .   S
    C0     O329      1.04428      .   S
    C133   O330      0.63668      .   S
    C59    O330      0.63668      .   S
    C133   O331      1.04113      .   S
    C4     O331      1.04113      .   S
    C61    O332      0.63566      .   S
    C134   O332      0.63566      .   S
    C93    O333      0.63543      .   S
    C150   O333      0.63543      .   S
    C59    O334      0.63387      .   S
    C132   O334      0.63387      .   S
    C91    O335      0.63426      .   S
    C148   O335      0.63426      .   S
    C0     O336      1.07821      .   S
    C128   O336      1.07821      .   S
    C0     O337      1.03302      .   S
    C130   O337      1.03302      .   S
    C4     O338      1.08165      .   S
    C144   O338      1.08165      .   S
    C4     O339      1.03470      .   S
    C146   O339      1.03470      .   S
    C128   O340      0.63378      .   S
    C56    O340      0.63378      .   S
    C144   O341      0.63407      .   S
    C88    O341      0.63407      .   S
    C134   O342      1.03976      .   S
    C1     O342      1.03976      .   S
    C150   O343      1.04451      .   S
    C5     O343      1.04451      .   S
    C148   O344      1.06372      .   S
    C5     O344      1.06372      .   S
    C132   O345      1.06823      .   S
    C1     O345      1.06823      .   S
    C146   O346      0.63557      .   S
    C90    O346      0.63557      .   S
    C130   O347      0.63586      .   S
    C58    O347      0.63586      .   S
