# CIF file generated by openbabel 2.4.90, see http://openbabel.sf.net
data_I
_chemical_name_common 'VESTA_phase_1'
_cell_length_a 19.824
_cell_length_b 20.617
_cell_length_c 13.36
_cell_angle_alpha 74.154
_cell_angle_beta 79.598
_cell_angle_gamma 61.879
_space_group_name_H-M_alt 'P 1'
_space_group_name_Hall 'P 1'
loop_
    _symmetry_equiv_pos_as_xyz
    x,y,z
loop_
    _atom_site_label
    _atom_site_type_symbol
    _atom_site_fract_x
    _atom_site_fract_y
    _atom_site_fract_z
    _atom_site_occupancy
    Zn0     Zn   0.26611   0.29028   0.71877   1.000
    Zn1     Zn   0.26611   0.79029   0.71877   1.000
    Zn2     Zn   0.76611   0.29028   0.71877   1.000
    Zn3     Zn   0.76611   0.79029   0.71877   1.000
    Zn4     Zn   0.42403   0.44195   0.87337   1.000
    Zn5     Zn   0.42403   0.94196   0.87337   1.000
    Zn6     Zn   0.92403   0.44195   0.87337   1.000
    Zn7     Zn   0.92402   0.94196   0.87337   1.000
    Zn8     Zn   0.23345   0.21022   0.28119   1.000
    Zn9     Zn   0.23345   0.71023   0.28119   1.000
    Zn10    Zn   0.73345   0.21022   0.28119   1.000
    Zn11    Zn   0.73344   0.71023   0.28119   1.000
    Zn12    Zn   0.07546   0.05874   0.12639   1.000
    Zn13    Zn   0.07546   0.55876   0.12639   1.000
    Zn14    Zn   0.57546   0.05874   0.12639   1.000
    Zn15    Zn   0.57546   0.55876   0.12639   1.000
    Zn16    Zn   0.24960   0.25049   0.30000   1.000
    Zn17    Zn   0.24960   0.75050   0.40000   1.000
    Zn18    Zn   0.74960   0.25049   0.30000   1.000
    Zn19    Zn   0.74960   0.75050   0.30000   1.000
    H20     H    0.34671   0.34576   0.01300   1.000
    H21     H    0.34670   0.84577   0.01300   1.000
    H22     H    0.84670   0.34576   0.01300   1.000
    H23     H    0.84670   0.84577   0.01300   1.000
    H24     H    0.33987   0.06001   0.00000   1.000
    H25     H    0.33987   0.56002   0.00000   1.000
    H26     H    0.83987   0.06001   0.00000   1.000
    H27     H    0.83986   0.56002   0.00000   1.000
    H28     H    0.07515   0.39776   0.67861   1.000
    H29     H    0.07515   0.89777   0.67861   1.000
    H30     H    0.57515   0.39776   0.67861   1.000
    H31     H    0.57514   0.89777   0.67861   1.000
    H32     H    0.06139   0.35752   0.00000   1.000
    H33     H    0.06138   0.85753   0.00000   1.000
    H34     H    0.56138   0.35752   0.00000   1.000
    H35     H    0.56138   0.85753   0.00000   1.000
    H36     H    0.37571   0.38252   0.68610   1.000
    H37     H    0.37571   0.88253   0.68610   1.000
    H38     H    0.87571   0.38252   0.68614   1.000
    H39     H    0.87570   0.88253   0.68610   1.000
    H40     H    0.35561   0.10733   0.68109   1.000
    H41     H    0.35561   0.60734   0.68109   1.000
    H42     H    0.85561   0.10733   0.68109   1.000
    H43     H    0.85560   0.60734   0.68109   1.000
    H44     H    0.15278   0.15493   0.98680   1.000
    H45     H    0.15278   0.65494   0.98680   1.000
    H46     H    0.65277   0.15493   0.98687   1.000
    H47     H    0.65277   0.65494   0.98680   1.000
    H48     H    0.15951   0.44059   0.99050   1.000
    H49     H    0.15951   0.94060   0.99050   1.000
    H50     H    0.65951   0.44059   0.99050   1.000
    H51     H    0.65951   0.94060   0.99050   1.000
    H52     H    0.42444   0.10268   0.32111   1.000
    H53     H    0.42444   0.60269   0.32110   1.000
    H54     H    0.92443   0.10268   0.32111   1.000
    H55     H    0.92443   0.60269   0.32110   1.000
    H56     H    0.43804   0.14334   0.99268   1.000
    H57     H    0.43804   0.64335   0.99268   1.000
    H58     H    0.93804   0.14334   0.99268   1.000
    H59     H    0.93804   0.64335   0.99268   1.000
    H60     H    0.12404   0.11783   0.31381   1.000
    H61     H    0.12404   0.61784   0.31381   1.000
    H62     H    0.62404   0.11783   0.31381   1.000
    H63     H    0.62404   0.61784   0.31381   1.000
    H64     H    0.14392   0.39325   0.31892   1.000
    H65     H    0.14392   0.89326   0.31892   1.000
    H66     H    0.64392   0.39325   0.31892   1.000
    H67     H    0.64391   0.89326   0.31892   1.000
    C68     C    0.08890   0.37750   0.75976   1.000
    C69     C    0.08890   0.87751   0.75976   1.000
    C70     C    0.58890   0.37750   0.75976   1.000
    C71     C    0.58890   0.87751   0.75976   1.000
    C72     C    0.08315   0.35506   0.92676   1.000
    C73     C    0.08314   0.85507   0.92676   1.000
    C74     C    0.58314   0.35506   0.92676   1.000
    C75     C    0.58314   0.85507   0.92676   1.000
    C76     C    0.36037   0.36343   0.76690   1.000
    C77     C    0.36036   0.86344   0.76690   1.000
    C78     C    0.86036   0.36343   0.76690   1.000
    C79     C    0.86036   0.86344   0.76690   1.000
    C80     C    0.34496   0.34437   0.93318   1.000
    C81     C    0.34496   0.84438   0.93318   1.000
    C82     C    0.84496   0.34437   0.93318   1.000
    C83     C    0.84496   0.84438   0.93318   1.000
    C84     C    0.34353   0.11304   0.76170   1.000
    C85     C    0.34353   0.61305   0.76170   1.000
    C86     C    0.84353   0.11304   0.76174   1.000
    C87     C    0.84352   0.61305   0.76174   1.000
    C88     C    0.33471   0.08966   0.92860   1.000
    C89     C    0.33471   0.58967   0.92860   1.000
    C90     C    0.83471   0.08966   0.92860   1.000
    C91     C    0.83471   0.58967   0.92860   1.000
    C92     C    0.25445   0.35743   0.50155   1.000
    C93     C    0.25445   0.85744   0.50155   1.000
    C94     C    0.75445   0.35743   0.50155   1.000
    C95     C    0.75444   0.85744   0.50155   1.000
    C96     C    0.29796   0.37131   0.39861   1.000
    C97     C    0.29796   0.87132   0.39861   1.000
    C98     C    0.79796   0.37131   0.39861   1.000
    C99     C    0.79795   0.87132   0.39861   1.000
    C100    C    0.34922   0.31258   0.34991   1.000
    C101    C    0.34922   0.81259   0.34991   1.000
    C102    C    0.84922   0.31258   0.34991   1.000
    C103    C    0.84921   0.81259   0.34991   1.000
    C104    C    0.28975   0.44356   0.34946   1.000
    C105    C    0.28975   0.94357   0.34946   1.000
    C106    C    0.78975   0.44356   0.34946   1.000
    C107    C    0.78975   0.94357   0.34946   1.000
    C108    C    0.39062   0.32551   0.25718   1.000
    C109    C    0.39062   0.82552   0.25718   1.000
    C110    C    0.89062   0.32551   0.25718   1.000
    C111    C    0.89061   0.82552   0.25718   1.000
    C112    C    0.33196   0.45598   0.25741   1.000
    C113    C    0.33196   0.95599   0.25741   1.000
    C114    C    0.83196   0.45598   0.25741   1.000
    C115    C    0.83195   0.95599   0.25741   1.000
    C116    C    0.38360   0.39732   0.20976   1.000
    C117    C    0.38360   0.89734   0.20976   1.000
    C118    C    0.88360   0.39732   0.20976   1.000
    C119    C    0.88360   0.89734   0.20976   1.000
    C120    C    0.43007   0.41212   0.11045   1.000
    C121    C    0.43007   0.91213   0.11045   1.000
    C122    C    0.93007   0.41212   0.11045   1.000
    C123    C    0.93007   0.91213   0.11045   1.000
    C124    C    0.41065   0.12304   0.23990   1.000
    C125    C    0.41064   0.62305   0.23998   1.000
    C126    C    0.91064   0.12304   0.23990   1.000
    C127    C    0.91064   0.62305   0.23998   1.000
    C128    C    0.41631   0.14570   0.07296   1.000
    C129    C    0.41631   0.64571   0.07296   1.000
    C130    C    0.91631   0.14570   0.07296   1.000
    C131    C    0.91631   0.64571   0.07296   1.000
    C132    C    0.13931   0.13701   0.23305   1.000
    C133    C    0.13930   0.63702   0.23305   1.000
    C134    C    0.63930   0.13701   0.23305   1.000
    C135    C    0.63930   0.63702   0.23305   1.000
    C136    C    0.15457   0.15625   0.06675   1.000
    C137    C    0.15456   0.65626   0.06675   1.000
    C138    C    0.65456   0.15625   0.06675   1.000
    C139    C    0.65456   0.65626   0.06675   1.000
    C140    C    0.15594   0.38755   0.23826   1.000
    C141    C    0.15594   0.88756   0.23826   1.000
    C142    C    0.65593   0.38755   0.23826   1.000
    C143    C    0.65593   0.88756   0.23826   1.000
    C144    C    0.16468   0.41096   0.07137   1.000
    C145    C    0.16468   0.91097   0.07137   1.000
    C146    C    0.66467   0.41095   0.07137   1.000
    C147    C    0.66467   0.91096   0.07137   1.000
    C148    C    0.24544   0.14271   0.49840   1.000
    C149    C    0.24544   0.64272   0.49840   1.000
    C150    C    0.74544   0.14271   0.49840   1.000
    C151    C    0.74543   0.64272   0.49840   1.000
    C152    C    0.20196   0.12877   0.60134   1.000
    C153    C    0.20195   0.62878   0.60134   1.000
    C154    C    0.70195   0.12877   0.60134   1.000
    C155    C    0.70195   0.62878   0.60134   1.000
    C156    C    0.15071   0.18750   0.65005   1.000
    C157    C    0.15071   0.68751   0.65005   1.000
    C158    C    0.65071   0.18750   0.65005   1.000
    C159    C    0.65071   0.68751   0.65005   1.000
    C160    C    0.21017   0.05652   0.65050   1.000
    C161    C    0.21016   0.55653   0.65050   1.000
    C162    C    0.71016   0.05652   0.65050   1.000
    C163    C    0.71016   0.55653   0.65050   1.000
    C164    C    0.10931   0.17458   0.74278   1.000
    C165    C    0.10931   0.67459   0.74278   1.000
    C166    C    0.60931   0.17458   0.74278   1.000
    C167    C    0.60930   0.67459   0.74278   1.000
    C168    C    0.16795   0.04411   0.74255   1.000
    C169    C    0.16795   0.54412   0.74255   1.000
    C170    C    0.66795   0.04411   0.74255   1.000
    C171    C    0.66795   0.54412   0.74255   1.000
    C172    C    0.11629   0.10277   0.79018   1.000
    C173    C    0.11629   0.60278   0.79018   1.000
    C174    C    0.61629   0.10277   0.79018   1.000
    C175    C    0.61629   0.60278   0.79018   1.000
    C176    C    0.06979   0.08807   0.88900   1.000
    C177    C    0.06979   0.58808   0.88900   1.000
    C178    C    0.56978   0.08807   0.88900   1.000
    C179    C    0.56978   0.58808   0.88900   1.000
    N180    N    0.16022   0.33335   0.78943   1.000
    N181    N    0.16022   0.83336   0.78943   1.000
    N182    N    0.66022   0.33335   0.78943   1.000
    N183    N    0.66021   0.83336   0.78943   1.000
    N184    N    0.15638   0.31888   0.89706   1.000
    N185    N    0.15638   0.81889   0.89706   1.000
    N186    N    0.65638   0.31888   0.89706   1.000
    N187    N    0.65638   0.81889   0.89706   1.000
    N188    N    0.03841   0.39262   0.84370   1.000
    N189    N    0.03841   0.89263   0.84370   1.000
    N190    N    0.53840   0.39262   0.84370   1.000
    N191    N    0.53840   0.89263   0.84370   1.000
    N192    N    0.32316   0.32106   0.79684   1.000
    N193    N    0.32316   0.82107   0.79684   1.000
    N194    N    0.82315   0.32106   0.79684   1.000
    N195    N    0.82315   0.82107   0.79684   1.000
    N196    N    0.31344   0.30871   0.90411   1.000
    N197    N    0.31344   0.80872   0.90411   1.000
    N198    N    0.81344   0.30871   0.90411   1.000
    N199    N    0.81344   0.80872   0.90411   1.000
    N200    N    0.37507   0.37992   0.84984   1.000
    N201    N    0.37507   0.87993   0.84984   1.000
    N202    N    0.87506   0.37992   0.84984   1.000
    N203    N    0.87506   0.87993   0.84984   1.000
    N204    N    0.30640   0.17918   0.79018   1.000
    N205    N    0.30639   0.67919   0.79018   1.000
    N206    N    0.80639   0.17918   0.79018   1.000
    N207    N    0.80639   0.67919   0.79018   1.000
    N208    N    0.30076   0.16409   0.89807   1.000
    N209    N    0.30076   0.66410   0.89807   1.000
    N210    N    0.80075   0.16409   0.89807   1.000
    N211    N    0.80075   0.66410   0.89807   1.000
    N212    N    0.36229   0.05494   0.84652   1.000
    N213    N    0.36229   0.55495   0.84652   1.000
    N214    N    0.86228   0.05494   0.84652   1.000
    N215    N    0.86228   0.55495   0.84652   1.000
    N216    N    0.33931   0.16724   0.21038   1.000
    N217    N    0.33931   0.66725   0.21038   1.000
    N218    N    0.83931   0.16724   0.21038   1.000
    N219    N    0.83931   0.66725   0.21038   1.000
    N220    N    0.34309   0.18186   0.10275   1.000
    N221    N    0.34309   0.68187   0.10275   1.000
    N222    N    0.84309   0.18186   0.10275   1.000
    N223    N    0.84308   0.68187   0.10275   1.000
    N224    N    0.46110   0.10803   0.15598   1.000
    N225    N    0.46109   0.60804   0.15598   1.000
    N226    N    0.96109   0.10803   0.15598   1.000
    N227    N    0.96109   0.60804   0.15598   1.000
    N228    N    0.17646   0.17942   0.20314   1.000
    N229    N    0.17646   0.67943   0.20314   1.000
    N230    N    0.67646   0.17942   0.20314   1.000
    N231    N    0.67645   0.67943   0.20314   1.000
    N232    N    0.18610   0.19188   0.09586   1.000
    N233    N    0.18610   0.69189   0.09586   1.000
    N234    N    0.68609   0.19188   0.09586   1.000
    N235    N    0.68609   0.69189   0.09586   1.000
    N236    N    0.12454   0.12061   0.15007   1.000
    N237    N    0.12454   0.62063   0.15007   1.000
    N238    N    0.62453   0.12061   0.15007   1.000
    N239    N    0.62453   0.62062   0.15007   1.000
    N240    N    0.19304   0.32141   0.20983   1.000
    N241    N    0.19304   0.82142   0.20983   1.000
    N242    N    0.69304   0.32141   0.20983   1.000
    N243    N    0.69304   0.82142   0.20983   1.000
    N244    N    0.19863   0.33653   0.10194   1.000
    N245    N    0.19862   0.83653   0.10194   1.000
    N246    N    0.69862   0.33653   0.10194   1.000
    N247    N    0.69862   0.83653   0.10194   1.000
    N248    N    0.13715   0.44567   0.15349   1.000
    N249    N    0.13714   0.94568   0.15349   1.000
    N250    N    0.63714   0.44566   0.15349   1.000
    N251    N    0.63714   0.94568   0.15349   1.000
    O252    O    0.30072   0.31187   0.57487   1.000
    O253    O    0.30072   0.81188   0.57487   1.000
    O254    O    0.80071   0.31187   0.57487   1.000
    O255    O    0.80071   0.81188   0.57487   1.000
    O256    O    0.18365   0.38869   0.50821   1.000
    O257    O    0.18365   0.88870   0.50821   1.000
    O258    O    0.68365   0.38870   0.50821   1.000
    O259    O    0.68365   0.88870   0.50821   1.000
    O260    O    0.98903   0.41678   0.11674   1.000
    O261    O    0.98902   0.91679   0.11674   1.000
    O262    O    0.48902   0.41678   0.11674   1.000
    O263    O    0.48902   0.91679   0.11674   1.000
    O264    O    0.40001   0.41870   0.02778   1.000
    O265    O    0.40000   0.91871   0.02778   1.000
    O266    O    0.90000   0.41870   0.02778   1.000
    O267    O    0.90000   0.91871   0.02778   1.000
    O268    O    0.19914   0.18837   0.42515   1.000
    O269    O    0.19913   0.68838   0.42515   1.000
    O270    O    0.69913   0.18837   0.42515   1.000
    O271    O    0.69913   0.68838   0.42515   1.000
    O272    O    0.31623   0.11142   0.49170   1.000
    O273    O    0.31623   0.61143   0.49170   1.000
    O274    O    0.81623   0.11142   0.49170   1.000
    O275    O    0.81623   0.61143   0.49170   1.000
    O276    O    0.51095   0.08318   0.88331   1.000
    O277    O    0.51095   0.58319   0.88331   1.000
    O278    O    0.00000   0.08318   0.88331   1.000
    O279    O    0.00000   0.58319   0.88331   1.000
    O280    O    0.09971   0.08184   0.97210   1.000
    O281    O    0.09971   0.58185   0.97210   1.000
    O282    O    0.59971   0.08184   0.97210   1.000
    O283    O    0.59970   0.58185   0.97210   1.000
    F284    F    0.35839   0.24157   0.39186   1.000
    F285    F    0.35839   0.74158   0.39186   1.000
    F286    F    0.85839   0.24157   0.39186   1.000
    F287    F    0.85839   0.74158   0.39186   1.000
    F288    F    0.24127   0.50315   0.39213   1.000
    F289    F    0.24127   0.00000   0.39213   1.000
    F290    F    0.74127   0.50315   0.39213   1.000
    F291    F    0.74126   0.00000   0.39213   1.000
    F292    F    0.43910   0.26652   0.21240   1.000
    F293    F    0.43910   0.76653   0.21240   1.000
    F294    F    0.93909   0.26652   0.21240   1.000
    F295    F    0.93909   0.76653   0.21240   1.000
    F296    F    0.32226   0.02725   0.21265   1.000
    F297    F    0.32225   0.52726   0.21265   1.000
    F298    F    0.82225   0.02725   0.21265   1.000
    F299    F    0.82225   0.52726   0.21265   1.000
    F300    F    0.14159   0.25849   0.60813   1.000
    F301    F    0.14159   0.75850   0.60813   1.000
    F302    F    0.64158   0.25849   0.60813   1.000
    F303    F    0.64158   0.75850   0.60813   1.000
    F304    F    0.25867   0.99692   0.60787   1.000
    F305    F    0.25867   0.49693   0.60787   1.000
    F306    F    0.75867   0.99692   0.60787   1.000
    F307    F    0.75866   0.49693   0.60787   1.000
    F308    F    0.06087   0.23354   0.78759   1.000
    F309    F    0.06086   0.73355   0.78759   1.000
    F310    F    0.56086   0.23354   0.78759   1.000
    F311    F    0.56086   0.73355   0.78759   1.000
    F312    F    0.17770   0.47284   0.78735   1.000
    F313    F    0.17770   0.97285   0.78735   1.000
    F314    F    0.67770   0.47284   0.78735   1.000
    F315    F    0.67770   0.97285   0.78735   1.000
loop_
    _geom_bond_atom_site_label_1
    _geom_bond_atom_site_label_2
    _geom_bond_distance
    _geom_bond_site_symmetry_2
    _ccdc_geom_bond_type
    H32    C72       1.00009  1_554   S
    H33    C73       1.00009  1_554   S
    H34    C74       1.00009  1_554   S
    H35    C75       1.00009  1_554   S
    H27    C91       0.97567  1_554   S
    H26    C90       0.97567  1_554   S
    H25    C89       0.97567  1_554   S
    H24    C88       0.97567  1_554   S
    H23    C83       1.08175  1_554   S
    H22    C82       1.08175  1_554   S
    H21    C81       1.08175  1_554   S
    H20    C80       1.08175  1_554   S
    O265   C121      1.29353      .   S
    O265   Zn5       2.00815  1_554   S
    O267   C123      1.29352      .   S
    O267   Zn7       2.00814  1_554   S
    O266   C122      1.29352      .   S
    O266   Zn6       2.00814  1_554   S
    O264   C120      1.29352      .   S
    O264   Zn4       2.00814  1_554   S
    C139   N235      1.32596      .   S
    C139   N239      1.36369      .   S
    C139   H47       1.08324  1_554   S
    C138   N234      1.32595      .   S
    C138   N238      1.36370      .   S
    C138   H46       1.08231  1_554   S
    C137   N233      1.32596      .   S
    C137   N237      1.36369      .   S
    C137   H45       1.08324  1_554   S
    C136   N232      1.32598      .   S
    C136   N236      1.36369      .   S
    C136   H44       1.08324  1_554   S
    C147   N247      1.32588      .   S
    C147   N251      1.36310      .   S
    C147   H51       1.08241  1_554   S
    C146   N246      1.32587      .   S
    C146   N250      1.36310      .   S
    C146   H50       1.08242  1_554   S
    C145   N245      1.32588      .   S
    C145   N249      1.36310      .   S
    C145   H49       1.08241  1_554   S
    C144   N244      1.32588      .   S
    C144   N248      1.36310      .   S
    C144   H48       1.08241  1_554   S
    C128   N220      1.32460      .   S
    C128   N224      1.36260      .   S
    C128   H56       1.08635  1_554   S
    C131   N223      1.32461      .   S
    C131   N227      1.36261      .   S
    C131   H59       1.08635  1_554   S
    C130   N222      1.32460      .   S
    C130   N226      1.36260      .   S
    C130   H58       1.08635  1_554   S
    C129   N221      1.32460      .   S
    C129   N225      1.36260      .   S
    C129   H57       1.08635  1_554   S
    N235   N231      1.37951      .   S
    N234   N230      1.37951      .   S
    N233   N229      1.37951      .   S
    N232   N228      1.37951      .   S
    N244   N240      1.38443      .   S
    N245   N241      1.38443      .   S
    N246   N242      1.38442      .   S
    N247   N243      1.38443      .   S
    N223   N219      1.38197      .   S
    N220   N216      1.38197      .   S
    N221   N217      1.38197      .   S
    N222   N218      1.38197      .   S
    C120   O262      1.23595      .   S
    C120   C116      1.51807      .   S
    C123   O261      1.23613      .   S
    C123   C119      1.51807      .   S
    C122   O260      1.23615      .   S
    C122   C118      1.51806      .   S
    C121   O263      1.23595      .   S
    C121   C117      1.51807      .   S
    Zn12   N236      2.04327      .   S
    Zn12   N249      2.01802  1_545   S
    Zn12   N226      2.01330  1_455   S
    Zn12   O280      2.00717  1_554   S
    Zn13   N237      2.04327      .   S
    Zn13   N248      2.01836      .   S
    Zn13   N227      2.01330  1_455   S
    Zn13   O281      2.00717  1_554   S
    Zn14   N238      2.04326      .   S
    Zn14   N251      2.01803  1_545   S
    Zn14   N224      2.01317      .   S
    Zn14   O282      2.00717  1_554   S
    Zn15   N239      2.04327      .   S
    Zn15   N250      2.01838      .   S
    Zn15   N225      2.01315      .   S
    Zn15   O283      2.00717  1_554   S
    N236   C132      1.35799      .   S
    N237   C133      1.35799      .   S
    N238   C134      1.35799      .   S
    N239   C135      1.35799      .   S
    N249   C141      1.35923      .   S
    N250   C142      1.35922      .   S
    N251   C143      1.35922      .   S
    N248   C140      1.35923      .   S
    N227   C127      1.35943      .   S
    N226   C126      1.35863      .   S
    N225   C125      1.35943      .   S
    N224   C124      1.35862      .   S
    N231   C135      1.33294      .   S
    N231   Zn11      2.05681      .   S
    N230   C134      1.33296      .   S
    N230   Zn10      2.05680      .   S
    N229   C133      1.33294      .   S
    N229   Zn9       2.05680      .   S
    N228   C132      1.33294      .   S
    N228   Zn8       2.05680      .   S
    C119   C111      1.39223      .   S
    C119   C115      1.39062      .   S
    C118   C110      1.39223      .   S
    C118   C114      1.39063      .   S
    C117   C109      1.39223      .   S
    C117   C113      1.39063      .   S
    C116   C108      1.39223      .   S
    C116   C112      1.39062      .   S
    N241   C141      1.33458      .   S
    N241   Zn9       2.03885      .   S
    N243   C143      1.33459      .   S
    N243   Zn19      1.68130      .   S
    N240   C140      1.33458      .   S
    N240   Zn16      1.68130      .   S
    N242   C142      1.33459      .   S
    N242   Zn18      1.68130      .   S
    N216   C124      1.33266      .   S
    N216   Zn8       2.01799      .   S
    N217   C125      1.33298      .   S
    N217   Zn9       2.01797      .   S
    N218   C126      1.33266      .   S
    N218   Zn10      2.01799      .   S
    N219   C127      1.33298      .   S
    N219   Zn11      2.01799      .   S
    F295   C111      1.35958      .   S
    F294   C110      1.35958      .   S
    F293   C109      1.35958      .   S
    F292   C108      1.35958      .   S
    F299   C114      1.35983      .   S
    F298   C115      1.35949  1_545   S
    F297   C112      1.35983      .   S
    F296   C113      1.35950  1_545   S
    C135   H63       1.08351      .   S
    C132   H60       1.08351      .   S
    C133   H61       1.08351      .   S
    C134   H62       1.08351      .   S
    C141   H65       1.08715      .   S
    C142   H66       1.08715      .   S
    C143   H67       1.08715      .   S
    C140   H64       1.08715      .   S
    C124   H52       1.08550      .   S
    C126   H54       1.08550      .   S
    C127   H55       1.08437      .   S
    C125   H53       1.08438      .   S
    C108   C100      1.39217      .   S
    C109   C101      1.39217      .   S
    C110   C102      1.39217      .   S
    C111   C103      1.39217      .   S
    C115   C107      1.39155      .   S
    C114   C106      1.39155      .   S
    C113   C105      1.39154      .   S
    C112   C104      1.39155      .   S
    Zn8    O268      1.92565      .   S
    Zn8    Zn16      1.11733      .   S
    Zn9    Zn17      2.11303      .   S
    Zn10   O270      1.92565      .   S
    Zn10   Zn18      1.11731      .   S
    Zn11   O271      1.92565      .   S
    Zn11   Zn19      1.11731      .   S
    C107   F291      1.30860  1_565   S
    C107   C99       1.39734      .   S
    C106   F290      1.35256      .   S
    C106   C98       1.39734      .   S
    C105   F289      1.30860  1_565   S
    C105   C97       1.39735      .   S
    C104   F288      1.35256      .   S
    C104   C96       1.39734      .   S
    C100   F284      1.35212      .   S
    C100   C96       1.39776      .   S
    C102   F286      1.35213      .   S
    C102   C98       1.39776      .   S
    C103   F287      1.35212      .   S
    C103   C99       1.39776      .   S
    C101   F285      1.35213      .   S
    C101   C97       1.39776      .   S
    C96    C92       1.51880      .   S
    C97    C93       1.51880      .   S
    C98    C94       1.51880      .   S
    C99    C95       1.51880      .   S
    O271   C151      1.30124      .   S
    O270   C150      1.30124      .   S
    O269   C149      1.30124      .   S
    O269   Zn17      1.89884      .   S
    O268   C148      1.30124      .   S
    O272   C148      1.23549      .   S
    O273   C149      1.23549      .   S
    O274   C150      1.23549      .   S
    O275   C151      1.23549      .   S
    C149   C153      1.51878      .   S
    C148   C152      1.51878      .   S
    C151   C155      1.51878      .   S
    C150   C154      1.51878      .   S
    C93    O257      1.23552      .   S
    C93    O253      1.30114      .   S
    C92    O256      1.23554      .   S
    C92    O252      1.30114      .   S
    C94    O258      1.23554      .   S
    C94    O254      1.30114      .   S
    C95    O259      1.23554      .   S
    C95    O255      1.30113      .   S
    O253   Zn1       1.92590      .   S
    O255   Zn3       1.92590      .   S
    O254   Zn2       1.92590      .   S
    O252   Zn0       1.92590      .   S
    C155   C159      1.39768      .   S
    C155   C163      1.39732      .   S
    C152   C156      1.39768      .   S
    C152   C160      1.39733      .   S
    C153   C157      1.39768      .   S
    C153   C161      1.39733      .   S
    C154   C158      1.39768      .   S
    C154   C162      1.39733      .   S
    F305   C161      1.35258      .   S
    F306   C162      1.35258  1_565   S
    F307   C163      1.35258      .   S
    F304   C160      1.35258  1_565   S
    F303   C159      1.35201      .   S
    F302   C158      1.35201      .   S
    F301   C157      1.35201      .   S
    F300   C156      1.35201      .   S
    C159   C167      1.39217      .   S
    C158   C166      1.39218      .   S
    C157   C165      1.39217      .   S
    C156   C164      1.39218      .   S
    C163   C171      1.39161      .   S
    C160   C168      1.39160      .   S
    C161   C169      1.39159      .   S
    C162   C170      1.39160      .   S
    H31    C71       1.08456      .   S
    H30    C70       1.08456      .   S
    H29    C69       1.08456      .   S
    H28    C68       1.08456      .   S
    H40    C84       1.08656      .   S
    H41    C85       1.08656      .   S
    H42    C86       1.08708      .   S
    H43    C87       1.08708      .   S
    H39    C79       1.08397      .   S
    H37    C77       1.08396      .   S
    H36    C76       1.08397      .   S
    H38    C78       1.08352      .   S
    Zn1    N181      2.01776      .   S
    Zn1    N205      2.03766      .   S
    Zn1    N193      2.05765      .   S
    Zn0    N180      2.01774      .   S
    Zn0    N204      2.03766      .   S
    Zn0    N192      2.05765      .   S
    Zn2    N182      2.01776      .   S
    Zn2    N206      2.03767      .   S
    Zn2    N194      2.05762      .   S
    Zn3    N183      2.01774      .   S
    Zn3    N207      2.03766      .   S
    Zn3    N195      2.05763      .   S
    C171   F314      1.35977      .   S
    C171   C175      1.39061      .   S
    C170   F315      1.35943  1_545   S
    C170   C174      1.39061      .   S
    C169   F312      1.35978      .   S
    C169   C173      1.39060      .   S
    C168   F313      1.35944  1_545   S
    C168   C172      1.39059      .   S
    C164   F308      1.35939      .   S
    C164   C172      1.39219      .   S
    C165   F309      1.35939      .   S
    C165   C173      1.39219      .   S
    C166   F310      1.35938      .   S
    C166   C174      1.39219      .   S
    C167   F311      1.35939      .   S
    C167   C175      1.39219      .   S
    C71    N183      1.33295      .   S
    C71    N191      1.35946      .   S
    C70    N182      1.33295      .   S
    C70    N190      1.35946      .   S
    C69    N181      1.33294      .   S
    C69    N189      1.35946      .   S
    C68    N180      1.33295      .   S
    C68    N188      1.35946      .   S
    C84    N204      1.33479      .   S
    C84    N212      1.35949      .   S
    C85    N205      1.33479      .   S
    C85    N213      1.35949      .   S
    C86    N206      1.33455      .   S
    C86    N214      1.35915      .   S
    C87    N207      1.33455      .   S
    C87    N215      1.35915      .   S
    C78    N194      1.33297      .   S
    C78    N202      1.35800      .   S
    C79    N195      1.33297      .   S
    C79    N203      1.35800      .   S
    C77    N193      1.33297      .   S
    C77    N201      1.35798      .   S
    C76    N192      1.33297      .   S
    C76    N200      1.35800      .   S
    N183   N187      1.38205      .   S
    N182   N186      1.38205      .   S
    N181   N185      1.38205      .   S
    N180   N184      1.38205      .   S
    N207   N211      1.38444      .   S
    C172   C176      1.51336      .   S
    C173   C177      1.51335      .   S
    C174   C178      1.51335      .   S
    C175   C179      1.51335      .   S
    N204   N208      1.38444      .   S
    N205   N209      1.38444      .   S
    N206   N210      1.38444      .   S
    N195   N199      1.37951      .   S
    N194   N198      1.37951      .   S
    N193   N197      1.37951      .   S
    N192   N196      1.37951      .   S
    N188   Zn6       2.01364  1_455   S
    N188   C72       1.36246      .   S
    N190   Zn4       2.01347      .   S
    N190   C74       1.36246      .   S
    N189   Zn7       2.01364  1_455   S
    N189   C73       1.36245      .   S
    N191   Zn5       2.01347      .   S
    N191   C75       1.36246      .   S
    N212   Zn5       2.01678  1_545   S
    N212   C88       1.36271      .   S
    N213   Zn4       2.01713      .   S
    N213   C89       1.36271      .   S
    N214   Zn7       2.01680  1_545   S
    N214   C90       1.36270      .   S
    N215   Zn6       2.01715      .   S
    N215   C91       1.36270      .   S
    N203   Zn7       2.04364      .   S
    N203   C83       1.36375      .   S
    N202   Zn6       2.04364      .   S
    N202   C82       1.36374      .   S
    N201   Zn5       2.04367      .   S
    N201   C81       1.36372      .   S
    N200   Zn4       2.04364      .   S
    N200   C80       1.36375      .   S
    O279   C177      1.45032      .   S
    O278   C176      1.45036      .   S
    O277   C179      1.23418      .   S
    O276   C178      1.23420      .   S
    C179   O283      1.29962      .   S
    C178   O282      1.29962      .   S
    C177   O281      1.29962      .   S
    C176   O280      1.29962      .   S
    N187   C75       1.32453      .   S
    N186   C74       1.32453      .   S
    N185   C73       1.32453      .   S
    N184   C72       1.32453      .   S
    N210   C90       1.32584      .   S
    N208   C88       1.32584      .   S
    N211   C91       1.32584      .   S
    N209   C89       1.32584      .   S
    N196   C80       1.32602      .   S
    N197   C81       1.32602      .   S
    N198   C82       1.32600      .   S
    N199   C83       1.32600      .   S
    O268   Zn16      2.20708      .   S
    O269   Zn9       1.92565      .   S
    O270   Zn18      2.20707      .   S
    O271   Zn19      2.20708      .   S
