# CIF file generated by openbabel 2.4.90, see http://openbabel.sf.net
data_I
_chemical_name_common ''
_cell_length_a 14.056
_cell_length_b 17.915
_cell_length_c 17.917
_cell_angle_alpha 100.312
_cell_angle_beta 91.959
_cell_angle_gamma 91.889
_space_group_name_H-M_alt 'P 1'
_space_group_name_Hall 'P 1'
loop_
    _symmetry_equiv_pos_as_xyz
    x,y,z
loop_
    _atom_site_label
    _atom_site_type_symbol
    _atom_site_fract_x
    _atom_site_fract_y
    _atom_site_fract_z
    _atom_site_occupancy
    Zn0     Zn   0.89933   0.08141   0.90968   1.000
    Zn1     Zn   0.41677   0.29387   0.45975   1.000
    Zn2     Zn   0.21326   0.28365   0.45036   1.000
    Zn3     Zn   0.58320   0.54029   0.70619   1.000
    Zn4     Zn   0.78672   0.54963   0.71670   1.000
    Zn5     Zn   0.10066   0.09029   0.91865   1.000
loop_
    _geom_bond_atom_site_label_1
    _geom_bond_atom_site_label_2
    _geom_bond_distance
    _geom_bond_site_symmetry_2
    _ccdc_geom_bond_type
    Zn5    Zn0       2.82657  1_455   S
    Zn1    Zn2       2.85759      .   S
    Zn3    Zn4       2.85783      .   S
