# CIF file generated by openbabel 2.4.90, see http://openbabel.sf.net
data_I
_chemical_name_common ''
_cell_length_a 14.056
_cell_length_b 17.915
_cell_length_c 17.917
_cell_angle_alpha 100.312
_cell_angle_beta 91.959
_cell_angle_gamma 91.889
_space_group_name_H-M_alt 'P 1'
_space_group_name_Hall 'P 1'
loop_
    _symmetry_equiv_pos_as_xyz
    x,y,z
loop_
    _atom_site_label
    _atom_site_type_symbol
    _atom_site_fract_x
    _atom_site_fract_y
    _atom_site_fract_z
    _atom_site_occupancy
    N0      N    0.03832   0.58791   0.91780   1.000
    N1      N    0.49999   0.08487   0.91515   1.000
    N2      N    0.35656   0.79240   0.46981   1.000
    N3      N    0.81494   0.29059   0.45283   1.000
    N4      N    0.64528   0.04142   0.70375   1.000
    N5      N    0.96176   0.08194   0.41204   1.000
    N6      N    0.35459   0.29632   0.95862   1.000
    N7      N    0.64340   0.53032   0.20777   1.000
    N8      N    0.18504   0.54716   0.70951   1.000
    Zr9     Zr   0.68496   0.54496   0.71144   1.000
    O10     O    0.85380   0.54661   0.71229   1.000
    O11     O    0.51619   0.54470   0.70930   1.000
    Zr12    Zr   1.00000   0.08585   0.91417   1.000
    O13     O    0.16864   0.08643   0.91540   1.000
    O14     O    0.83135   0.08463   0.91358   1.000
    Zr15    Zr   0.31502   0.28876   0.45505   1.000
    O16     O    0.14619   0.28791   0.45338   1.000
    O17     O    0.48379   0.29084   0.45532   1.000
    O18     O    0.67564   0.68353   0.71063   1.000
    O19     O    0.67516   0.40443   0.70842   1.000
    O20     O    0.67424   0.53962   0.57098   1.000
    O21     O    0.67365   0.54249   0.84995   1.000
    O22     O    0.00911   0.22581   0.91609   1.000
    O23     O    0.00830   0.94688   0.91387   1.000
    O24     O    0.32480   0.29175   0.59560   1.000
    O25     O    0.32431   0.28954   0.31649   1.000
    O26     O    0.32572   0.42921   0.46043   1.000
    O27     O    0.32633   0.15024   0.45755   1.000
    O28     O    0.99172   0.08607   0.05311   1.000
    O29     O    0.99090   0.08387   0.77418   1.000
loop_
    _geom_bond_atom_site_label_1
    _geom_bond_atom_site_label_2
    _geom_bond_distance
    _geom_bond_site_symmetry_2
    _ccdc_geom_bond_type
    Zr9    O10       2.37180      .   S
    N8     O10       4.65770  1_455   S
    Zr9    O11       2.37112      .   S
    N8     O11       4.65638      .   S
    Zr12   O13       2.36941  1_655   S
    N1     O13       4.65866      .   S
    Zr12   O14       2.36948      .   S
    N1     O14       4.65882      .   S
    Zr15   O16       2.37176      .   S
    N3     O16       4.65759  1_655   S
    Zr15   O17       2.37115      .   S
    N3     O17       4.65646      .   S
    Zr9    O18       2.49290      .   S
    N4     O18       6.46268  1_545   S
    Zr9    O19       2.50759      .   S
    N4     O19       6.48831      .   S
    Zr9    O20       2.50052      .   S
    N7     O20       6.47916      .   S
    Zr9    O21       2.50035      .   S
    N7     O21       6.48148  1_554   S
    N0     O22       6.48097      .   S
    Zr12   O22       2.50043  1_655   S
    N0     O23       6.47152      .   S
    Zr12   O23       2.49520  1_645   S
    Zr15   O24       2.50806      .   S
    N6     O24       6.48915      .   S
    Zr15   O25       2.49306      .   S
    N6     O25       6.46297  1_556   S
    Zr15   O26       2.50008      .   S
    N2     O26       6.47839      .   S
    Zr15   O27       2.50011      .   S
    N2     O27       6.48096  1_565   S
    N5     O28       6.47244      .   S
    Zr12   O28       2.49556  1_556   S
    N5     O29       6.48127      .   S
    Zr12   O29       2.50075      .   S
