# CIF file generated by openbabel 2.4.90, see http://openbabel.sf.net
data_I
_chemical_name_common ''
_cell_length_a 14.056
_cell_length_b 17.915
_cell_length_c 17.917
_cell_angle_alpha 100.312
_cell_angle_beta 91.959
_cell_angle_gamma 91.889
_space_group_name_H-M_alt 'P 1'
_space_group_name_Hall 'P 1'
loop_
    _symmetry_equiv_pos_as_xyz
    x,y,z
loop_
    _atom_site_label
    _atom_site_type_symbol
    _atom_site_fract_x
    _atom_site_fract_y
    _atom_site_fract_z
    _atom_site_occupancy
    N0      N    0.03832   0.58791   0.91780   1.000
    N1      N    0.49999   0.08487   0.91515   1.000
    N2      N    0.35656   0.79240   0.46981   1.000
    N3      N    0.81494   0.29059   0.45283   1.000
    N4      N    0.64528   0.04142   0.70375   1.000
    N5      N    0.96176   0.08194   0.41204   1.000
    N6      N    0.35459   0.29632   0.95862   1.000
    N7      N    0.64340   0.53032   0.20777   1.000
    N8      N    0.18504   0.54716   0.70951   1.000
    Zr9     Zr   0.68496   0.54496   0.71144   1.000
    O10     O    0.69647   0.54371   0.85110   1.000
    O11     O    0.69798   0.40545   0.70983   1.000
    O12     O    0.69846   0.68471   0.71187   1.000
    O13     O    0.69705   0.54095   0.57222   1.000
    O14     O    0.85380   0.54661   0.71229   1.000
    O15     O    0.65282   0.68235   0.70938   1.000
    O16     O    0.65082   0.54127   0.84880   1.000
    O17     O    0.65234   0.40341   0.70701   1.000
    O18     O    0.65143   0.53829   0.56974   1.000
    O19     O    0.51619   0.54470   0.70930   1.000
    Zr20    Zr   1.00000   0.08585   0.91417   1.000
    O21     O    0.03166   0.22686   0.91827   1.000
    O22     O    0.03097   0.94797   0.91424   1.000
    O23     O    0.16864   0.08643   0.91540   1.000
    O24     O    0.01346   0.08604   0.77524   1.000
    O25     O    0.01439   0.08642   0.05421   1.000
    O26     O    0.98563   0.94580   0.91351   1.000
    O27     O    0.98656   0.22476   0.91390   1.000
    O28     O    0.83135   0.08463   0.91358   1.000
    O29     O    0.96835   0.08170   0.77312   1.000
    O30     O    0.96905   0.08571   0.05202   1.000
    Zr31    Zr   0.31502   0.28876   0.45505   1.000
    O32     O    0.30198   0.29037   0.59457   1.000
    O33     O    0.30292   0.42800   0.45909   1.000
    O34     O    0.30351   0.14912   0.45632   1.000
    O35     O    0.30149   0.28831   0.31530   1.000
    O36     O    0.14619   0.28791   0.45338   1.000
    O37     O    0.34714   0.29076   0.31768   1.000
    O38     O    0.34762   0.29312   0.59663   1.000
    O39     O    0.34853   0.43042   0.46177   1.000
    O40     O    0.34916   0.15137   0.45878   1.000
    O41     O    0.48379   0.29084   0.45532   1.000
loop_
    _geom_bond_atom_site_label_1
    _geom_bond_atom_site_label_2
    _geom_bond_distance
    _geom_bond_site_symmetry_2
    _ccdc_geom_bond_type
    Zr9    O10       2.50609      .   S
    N7     O10       6.50494  1_554   S
    Zr9    O11       2.50705      .   S
    N4     O11       6.52018      .   S
    Zr9    O12       2.50325      .   S
    N4     O12       6.48524  1_545   S
    Zr9    O13       2.49448      .   S
    N7     O13       6.51552      .   S
    Zr9    O14       2.37180      .   S
    N8     O14       4.65770  1_455   S
    Zr9    O15       2.52355      .   S
    N4     O15       6.45597  1_545   S
    Zr9    O16       2.53545      .   S
    N7     O16       6.47383  1_554   S
    Zr9    O17       2.54877      .   S
    N4     O17       6.47218      .   S
    Zr9    O18       2.54717      .   S
    N7     O18       6.45850      .   S
    Zr9    O19       2.37112      .   S
    N8     O19       4.65638      .   S
    Zr20   O21       2.53812  1_655   S
    N0     O21       6.46734      .   S
    Zr20   O22       2.52247  1_645   S
    N0     O22       6.46645      .   S
    Zr20   O23       2.36941  1_655   S
    N1     O23       4.65866      .   S
    Zr20   O24       2.50325  1_655   S
    N5     O24       6.51024  1_655   S
    Zr20   O25       2.50859  1_656   S
    N5     O25       6.49327  1_655   S
    Zr20   O26       2.50836  1_545   S
    N0     O26       6.49221  1_455   S
    Zr20   O27       2.50279      .   S
    N0     O27       6.51009  1_455   S
    Zr20   O28       2.36948      .   S
    N1     O28       4.65882      .   S
    Zr20   O29       2.53829      .   S
    N5     O29       6.46779      .   S
    Zr20   O30       2.52296  1_556   S
    N5     O30       6.46723      .   S
    Zr31   O32       2.50771      .   S
    N6     O32       6.52082      .   S
    Zr31   O33       2.49424      .   S
    N2     O33       6.51460      .   S
    Zr31   O34       2.50579      .   S
    N2     O34       6.50445  1_565   S
    Zr31   O35       2.50325      .   S
    N6     O35       6.48568  1_556   S
    Zr31   O36       2.37176      .   S
    N3     O36       4.65759  1_655   S
    Zr31   O37       2.52386      .   S
    N6     O37       6.45612  1_556   S
    Zr31   O38       2.54904      .   S
    N6     O38       6.47321      .   S
    Zr31   O39       2.54654      .   S
    N2     O39       6.45790      .   S
    Zr31   O40       2.53526      .   S
    N2     O40       6.47327  1_565   S
    Zr31   O41       2.37115      .   S
    N3     O41       4.65646      .   S
