# CIF file generated by openbabel 2.4.90, see http://openbabel.sf.net
data_I
_chemical_name_common 'VESTA_phase_1'
_cell_length_a 12.194
_cell_length_b 12.182
_cell_length_c 23.169
_cell_angle_alpha 90
_cell_angle_beta 90
_cell_angle_gamma 90.001
_space_group_name_H-M_alt 'P 1'
_space_group_name_Hall 'P 1'
loop_
    _symmetry_equiv_pos_as_xyz
    x,y,z
loop_
    _atom_site_label
    _atom_site_type_symbol
    _atom_site_fract_x
    _atom_site_fract_y
    _atom_site_fract_z
    _atom_site_occupancy
    Cu0     Cu   0.00000   0.60043   0.00000   1.000
    Cu1     Cu   1.00000   0.39959   0.00000   1.000
    Cu2     Cu   0.39965   0.99999   0.50000   1.000
    Cu3     Cu   0.60032   0.00000   0.50000   1.000
    H4      H    0.60752   0.67680   0.79878   1.000
    H5      H    0.75327   0.67619   0.87317   1.000
    H6      H    0.39242   0.32320   0.79878   1.000
    H7      H    0.24667   0.32381   0.87317   1.000
    H8      H    0.32336   0.60755   0.29865   1.000
    H9      H    0.32398   0.75328   0.37314   1.000
    H10     H    0.67661   0.39245   0.29865   1.000
    H11     H    0.67598   0.24671   0.37314   1.000
    H12     H    0.39243   0.67680   0.20121   1.000
    H13     H    0.24669   0.67618   0.12682   1.000
    H14     H    0.60753   0.32320   0.20121   1.000
    H15     H    0.75328   0.32382   0.12682   1.000
    H16     H    0.67660   0.60756   0.70134   1.000
    H17     H    0.67598   0.75329   0.62686   1.000
    H18     H    0.32335   0.39244   0.70134   1.000
    H19     H    0.32397   0.24671   0.62686   1.000
    H20     H    0.39243   0.32320   0.20121   1.000
    H21     H    0.24668   0.32382   0.12682   1.000
    H22     H    0.60753   0.67680   0.20121   1.000
    H23     H    0.75328   0.67619   0.12682   1.000
    H24     H    0.67660   0.39245   0.70134   1.000
    H25     H    0.67598   0.24672   0.62686   1.000
    H26     H    0.32335   0.60755   0.70134   1.000
    H27     H    0.32397   0.75329   0.62686   1.000
    H28     H    0.60752   0.32321   0.79878   1.000
    H29     H    0.75327   0.32382   0.87317   1.000
    H30     H    0.39242   0.67680   0.79878   1.000
    H31     H    0.24668   0.67618   0.87317   1.000
    H32     H    0.32336   0.39244   0.29865   1.000
    H33     H    0.32398   0.24671   0.37313   1.000
    H34     H    0.67661   0.60756   0.29865   1.000
    H35     H    0.67599   0.75329   0.37310   1.000
    C36     C    0.63968   0.59882   0.81433   1.000
    C37     C    0.72140   0.59916   0.85625   1.000
    C38     C    0.36026   0.40118   0.81433   1.000
    C39     C    0.27854   0.40085   0.85625   1.000
    C40     C    0.40126   0.63973   0.31421   1.000
    C41     C    0.40092   0.72142   0.35618   1.000
    C42     C    0.59870   0.36027   0.31421   1.000
    C43     C    0.59904   0.27857   0.35618   1.000
    C44     C    0.36028   0.59881   0.18566   1.000
    C45     C    0.27856   0.59915   0.14374   1.000
    C46     C    0.63969   0.40119   0.18566   1.000
    C47     C    0.72141   0.40085   0.14374   1.000
    C48     C    0.59870   0.63974   0.68570   1.000
    C49     C    0.59903   0.72143   0.64381   1.000
    C50     C    0.40125   0.36026   0.68578   1.000
    C51     C    0.40092   0.27857   0.64381   1.000
    C52     C    0.36027   0.40119   0.18566   1.000
    C53     C    0.27855   0.40085   0.14374   1.000
    C54     C    0.63969   0.59882   0.18566   1.000
    C55     C    0.72141   0.59916   0.14374   1.000
    C56     C    0.59870   0.36027   0.68570   1.000
    C57     C    0.59903   0.27858   0.64380   1.000
    C58     C    0.40125   0.63974   0.68570   1.000
    C59     C    0.40092   0.72143   0.64381   1.000
    C60     C    0.63968   0.40119   0.81433   1.000
    C61     C    0.72140   0.40085   0.85625   1.000
    C62     C    0.36026   0.59881   0.81433   1.000
    C63     C    0.27854   0.59915   0.85625   1.000
    C64     C    0.40126   0.36026   0.31421   1.000
    C65     C    0.40092   0.27857   0.35618   1.000
    C66     C    0.59871   0.63974   0.31421   1.000
    C67     C    0.59904   0.72143   0.35618   1.000
    C68     C    0.59831   0.50000   0.79207   1.000
    C69     C    0.85095   0.50000   0.92242   1.000
    C70     C    0.76343   0.50000   0.87749   1.000
    C71     C    0.40163   0.50000   0.79207   1.000
    C72     C    0.14899   0.50000   0.92242   1.000
    C73     C    0.23651   0.50000   0.87749   1.000
    C74     C    0.49998   0.59840   0.29190   1.000
    C75     C    0.49998   0.85093   0.42241   1.000
    C76     C    0.49998   0.76344   0.37744   1.000
    C77     C    0.49998   0.40160   0.29191   1.000
    C78     C    0.49998   0.14907   0.42241   1.000
    C79     C    0.49998   0.23656   0.37744   1.000
    C80     C    0.40164   0.50000   0.20792   1.000
    C81     C    0.14900   0.50000   0.07757   1.000
    C82     C    0.23652   0.50000   0.12250   1.000
    C83     C    0.59832   0.50000   0.20792   1.000
    C84     C    0.85096   0.50001   0.07757   1.000
    C85     C    0.76344   0.50001   0.12250   1.000
    C86     C    0.49997   0.59840   0.70808   1.000
    C87     C    0.49998   0.85093   0.57758   1.000
    C88     C    0.49998   0.76344   0.62250   1.000
    C89     C    0.49997   0.40160   0.70808   1.000
    C90     C    0.49998   0.14907   0.57758   1.000
    C91     C    0.49998   0.23656   0.62250   1.000
    C92     C    0.49997   0.50000   0.75008   1.000
    C93     C    0.49998   0.50000   0.24991   1.000
    O94     O    0.88514   0.59358   0.93998   1.000
    O95     O    0.11481   0.40642   0.93990   1.000
    O96     O    0.40649   0.88511   0.43998   1.000
    O97     O    0.59347   0.11489   0.43998   1.000
    O98     O    0.11482   0.59358   0.06002   1.000
    O99     O    0.88514   0.40643   0.06002   1.000
    O100    O    0.59346   0.88511   0.56001   1.000
    O101    O    0.40649   0.11489   0.56001   1.000
    O102    O    0.11482   0.40642   0.06002   1.000
    O103    O    0.88515   0.59358   0.06002   1.000
    O104    O    0.59346   0.11489   0.56001   1.000
    O105    O    0.40649   0.88511   0.56001   1.000
    O106    O    0.88513   0.40643   0.93998   1.000
    O107    O    0.11481   0.59357   0.93998   1.000
    O108    O    0.40649   0.11489   0.43998   1.000
    O109    O    0.59347   0.88512   0.43998   1.000
loop_
    _geom_bond_atom_site_label_1
    _geom_bond_atom_site_label_2
    _geom_bond_distance
    _geom_bond_site_symmetry_2
    _ccdc_geom_bond_type
    Cu1    O102      1.97512  1_655   S
    Cu1    O99       1.97540      .   S
    Cu1    O95       1.97636  1_654   S
    Cu1    O106      1.97548  1_554   S
    Cu0    O103      1.97540  1_455   S
    Cu0    O98       1.97513      .   S
    Cu0    O94       1.97547  1_454   S
    Cu0    O107      1.97505  1_554   S
    O103   C84       1.28006      .   S
    O102   C81       1.28007      .   S
    O99    C84       1.28006      .   S
    O98    C81       1.28007      .   S
    C81    C82       1.49082      .   S
    C84    C85       1.49082      .   S
    C82    C53       1.40136      .   S
    C82    C45       1.40135      .   S
    C85    C55       1.40135      .   S
    C85    C47       1.40136      .   S
    H13    C45       1.08871      .   S
    H15    C47       1.08870      .   S
    H23    C55       1.08870      .   S
    H21    C53       1.08869      .   S
    C55    C54       1.39153      .   S
    C53    C52       1.39153      .   S
    C47    C46       1.39153      .   S
    C45    C44       1.39153      .   S
    C54    H22       1.08906      .   S
    C54    C83       1.40340      .   S
    C46    H14       1.08907      .   S
    C46    C83       1.40338      .   S
    C44    H12       1.08907      .   S
    C44    C80       1.40338      .   S
    C52    H20       1.08907      .   S
    C52    C80       1.40338      .   S
    C83    C93       1.54417      .   S
    C80    C93       1.54417      .   S
    C93    C74       1.54380      .   S
    C93    C77       1.54394      .   S
    C74    C66       1.40355      .   S
    C74    C40       1.40356      .   S
    C77    C64       1.40348      .   S
    C77    C42       1.40347      .   S
    H32    C64       1.08907      .   S
    H34    C66       1.08907      .   S
    H10    C42       1.08907      .   S
    H8     C40       1.08908      .   S
    C64    C65       1.39138      .   S
    C66    C67       1.39138      .   S
    C42    C43       1.39138      .   S
    C40    C41       1.39138      .   S
    C65    H33       1.08867      .   S
    C65    C79       1.40129      .   S
    C43    H11       1.08875      .   S
    C43    C79       1.40129      .   S
    C41    H9        1.08875      .   S
    C41    C76       1.40129      .   S
    C67    H35       1.08841      .   S
    C67    C76       1.40129      .   S
    C76    C75       1.49053      .   S
    C79    C78       1.49053      .   S
    C75    O109      1.28009      .   S
    C75    O96       1.28009      .   S
    C78    O97       1.28010      .   S
    C78    O108      1.28009      .   S
    O109   Cu3       1.97469  1_565   S
    O96    Cu2       1.97470      .   S
    O97    Cu3       1.97474      .   S
    O108   Cu2       1.97475  1_545   S
    Cu3    O104      1.97458      .   S
    Cu3    O100      1.97454  1_545   S
    Cu2    O105      1.97452      .   S
    Cu2    O101      1.97458  1_565   S
    O105   C87       1.28009      .   S
    O104   C90       1.28010      .   S
    O100   C87       1.28010      .   S
    O101   C90       1.28009      .   S
    C87    C88       1.48972      .   S
    C90    C91       1.48973      .   S
    C88    C49       1.40169      .   S
    C88    C59       1.40170      .   S
    C91    C57       1.40161      .   S
    C91    C51       1.40170      .   S
    H27    C59       1.08866      .   S
    H25    C57       1.08858      .   S
    H17    C49       1.08867      .   S
    H19    C51       1.08866      .   S
    C57    C56       1.39025      .   S
    C49    C48       1.39009      .   S
    C51    C50       1.39138      .   S
    C59    C58       1.39008      .   S
    C48    H16       1.08969      .   S
    C48    C86       1.40415      .   S
    C58    H26       1.08969      .   S
    C58    C86       1.40415      .   S
    C56    H24       1.08969      .   S
    C56    C89       1.40416      .   S
    C50    H18       1.08907      .   S
    C50    C89       1.40346      .   S
    C86    C92       1.54394      .   S
    C89    C92       1.54394      .   S
    C92    C71       1.54417      .   S
    C92    C68       1.54417      .   S
    C71    C38       1.40339      .   S
    C71    C62       1.40339      .   S
    C68    C36       1.40339      .   S
    C68    C60       1.40339      .   S
    H28    C60       1.08907      .   S
    H4     C36       1.08906      .   S
    H6     C38       1.08908      .   S
    H30    C62       1.08907      .   S
    C36    C37       1.39153      .   S
    C38    C39       1.39152      .   S
    C62    C63       1.39153      .   S
    C60    C61       1.39152      .   S
    C61    H29       1.08870      .   S
    C61    C70       1.40136      .   S
    C37    H5        1.08870      .   S
    C37    C70       1.40136      .   S
    C63    H31       1.08870      .   S
    C63    C73       1.40135      .   S
    C39    H7        1.08870      .   S
    C39    C73       1.40136      .   S
    C70    C69       1.49082      .   S
    C73    C72       1.49082      .   S
    C69    O94       1.28014      .   S
    C69    O106      1.28013      .   S
    C72    O95       1.27955      .   S
    C72    O107      1.28014      .   S
    Cu0    Cu1       2.44665  1_455   S
    Cu2    Cu3       2.44697  1_565   S
