# CIF file generated by openbabel 2.4.90, see http://openbabel.sf.net
data_I
_chemical_name_common ''
_cell_length_a 20.297
_cell_length_b 22.807
_cell_length_c 18.089
_cell_angle_alpha 99.858
_cell_angle_beta 89.934
_cell_angle_gamma 116.458
_space_group_name_H-M_alt 'P 1'
_space_group_name_Hall 'P 1'
loop_
    _symmetry_equiv_pos_as_xyz
    x,y,z
loop_
    _atom_site_label
    _atom_site_type_symbol
    _atom_site_fract_x
    _atom_site_fract_y
    _atom_site_fract_z
    _atom_site_occupancy
    N0      N    0.45385   0.92826   0.83133   1.000
    N1      N    0.02554   0.57170   0.66866   1.000
    N2      N    0.52554   0.07170   0.66865   1.000
    N3      N    0.02554   0.07170   0.66866   1.000
    N4      N    0.04617   0.07176   0.16864   1.000
    N5      N    0.04617   0.57177   0.16862   1.000
    N6      N    0.95321   0.42826   0.83133   1.000
    N7      N    0.95321   0.92826   0.83132   1.000
    N8      N    0.45385   0.42826   0.83133   1.000
    N9      N    0.97448   0.42832   0.33132   1.000
    N10     N    0.97448   0.92832   0.33132   1.000
    N11     N    0.52554   0.57170   0.66865   1.000
    N12     N    0.54617   0.57176   0.16864   1.000
    N13     N    0.47448   0.92832   0.33131   1.000
    N14     N    0.54617   0.07176   0.16864   1.000
    N15     N    0.47448   0.42832   0.33132   1.000
    Zr16    Zr   0.76995   0.59537   0.02610   1.000
    O17     O    0.67996   0.55326   0.96711   1.000
    O18     O    0.70609   0.57737   0.06675   1.000
    O19     O    0.82918   0.55495   0.97143   1.000
    Zr20    Zr   0.25001   0.75001   0.99998   1.000
    O21     O    0.30936   0.78849   0.09396   1.000
    O22     O    0.33787   0.84075   0.04374   1.000
    O23     O    0.16199   0.65927   0.95622   1.000
    O24     O    0.19066   0.71153   0.90601   1.000
    Zr25    Zr   0.00001   0.25001   0.49999   1.000
    O26     O    0.02089   0.21157   0.40600   1.000
    O27     O    0.99714   0.15929   0.45622   1.000
    O28     O    0.97896   0.28845   0.59398   1.000
    O29     O    0.00287   0.34073   0.54376   1.000
    Zr30    Zr   0.26996   0.59538   0.02610   1.000
    O31     O    0.32934   0.55495   0.97144   1.000
    O32     O    0.20609   0.57737   0.06675   1.000
    O33     O    0.17981   0.55326   0.96711   1.000
    Zr34    Zr   0.26995   0.09537   0.02610   1.000
    O35     O    0.17980   0.05325   0.96711   1.000
    O36     O    0.20609   0.07737   0.06675   1.000
    O37     O    0.32934   0.05494   0.97143   1.000
    Zr38    Zr   0.00000   0.75001   0.49998   1.000
    O39     O    0.97896   0.78845   0.59397   1.000
    O40     O    0.00287   0.84073   0.54376   1.000
    O41     O    0.99714   0.65930   0.45621   1.000
    O42     O    0.02089   0.71158   0.40598   1.000
    Zr43    Zr   0.67466   0.90471   0.47390   1.000
    O44     O    0.62880   0.92272   0.43324   1.000
    O45     O    0.77443   0.94510   0.52855   1.000
    O46     O    0.62674   0.94680   0.53289   1.000
    Zr47    Zr   0.23007   0.40465   0.97388   1.000
    O48     O    0.29394   0.42266   0.93323   1.000
    O49     O    0.17069   0.44508   0.02854   1.000
    O50     O    0.32006   0.44677   0.03287   1.000
    Zr51    Zr   0.23007   0.90465   0.97388   1.000
    O52     O    0.17069   0.94508   0.02854   1.000
    O53     O    0.32006   0.94677   0.03287   1.000
    O54     O    0.29394   0.92266   0.93322   1.000
    Zr55    Zr   0.73006   0.40465   0.97388   1.000
    O56     O    0.82006   0.44677   0.03286   1.000
    O57     O    0.67068   0.44508   0.02854   1.000
    O58     O    0.79377   0.42266   0.93323   1.000
    Zr59    Zr   0.50001   0.75001   0.49999   1.000
    O60     O    0.49714   0.65930   0.45622   1.000
    O61     O    0.50287   0.84073   0.54376   1.000
    O62     O    0.47913   0.78845   0.59398   1.000
    O63     O    0.52089   0.71158   0.40600   1.000
    Zr64    Zr   0.73007   0.90465   0.97388   1.000
    O65     O    0.79378   0.92266   0.93322   1.000
    O66     O    0.82006   0.94677   0.03287   1.000
    O67     O    0.67069   0.94508   0.02854   1.000
    Zr68    Zr   0.75001   0.75002   0.99999   1.000
    O69     O    0.66215   0.65927   0.95623   1.000
    O70     O    0.80936   0.78849   0.09397   1.000
    O71     O    0.69066   0.71154   0.90601   1.000
    O72     O    0.83787   0.84075   0.04375   1.000
    Zr73    Zr   0.32535   0.09531   0.52608   1.000
    O74     O    0.37327   0.05322   0.46709   1.000
    O75     O    0.37122   0.07731   0.56674   1.000
    O76     O    0.22559   0.05493   0.47143   1.000
    Zr77    Zr   0.76995   0.09537   0.02610   1.000
    O78     O    0.70608   0.07736   0.06675   1.000
    O79     O    0.82917   0.05494   0.97143   1.000
    O80     O    0.67996   0.05325   0.96711   1.000
    Zr81    Zr   0.32536   0.59532   0.52608   1.000
    O82     O    0.37122   0.57731   0.56674   1.000
    O83     O    0.37327   0.55322   0.46709   1.000
    O84     O    0.22559   0.55493   0.47143   1.000
    Zr85    Zr   0.75001   0.25001   0.00000   1.000
    O86     O    0.69066   0.21153   0.90602   1.000
    O87     O    0.80936   0.28849   0.09398   1.000
    O88     O    0.66215   0.15927   0.95623   1.000
    O89     O    0.83787   0.34075   0.04375   1.000
    Zr90    Zr   0.82535   0.59532   0.52608   1.000
    O91     O    0.87327   0.55322   0.46709   1.000
    O92     O    0.72559   0.55493   0.47143   1.000
    O93     O    0.87122   0.57731   0.56674   1.000
    Zr94    Zr   0.50001   0.25001   0.49999   1.000
    O95     O    0.47912   0.28845   0.59398   1.000
    O96     O    0.49714   0.15929   0.45621   1.000
    O97     O    0.50287   0.34073   0.54376   1.000
    O98     O    0.52089   0.21157   0.40600   1.000
    Zr99    Zr   0.17467   0.90471   0.47390   1.000
    O100    O    0.12880   0.92272   0.43324   1.000
    O101    O    0.27443   0.94510   0.52855   1.000
    O102    O    0.12675   0.94680   0.53289   1.000
    Zr103   Zr   0.17466   0.40471   0.47390   1.000
    O104    O    0.27443   0.44510   0.52855   1.000
    O105    O    0.12674   0.44680   0.53289   1.000
    O106    O    0.12880   0.42271   0.43324   1.000
    Zr107   Zr   0.67466   0.40471   0.47390   1.000
    O108    O    0.62674   0.44680   0.53289   1.000
    O109    O    0.62879   0.42271   0.43324   1.000
    O110    O    0.77442   0.44510   0.52855   1.000
    Zr111   Zr   0.25001   0.25001   0.00000   1.000
    O112    O    0.16199   0.15927   0.95623   1.000
    O113    O    0.19066   0.21153   0.90602   1.000
    O114    O    0.30936   0.28849   0.09398   1.000
    O115    O    0.33788   0.34075   0.04376   1.000
    Zr116   Zr   0.82535   0.09531   0.52608   1.000
    O117    O    0.72559   0.05493   0.47143   1.000
    O118    O    0.87122   0.07731   0.56674   1.000
    O119    O    0.87327   0.05322   0.46709   1.000
    O120    O    0.17440   0.81091   0.88629   1.000
    O121    O    0.32563   0.18912   0.11369   1.000
    O122    O    0.63659   0.31096   0.38630   1.000
    O123    O    0.86326   0.68906   0.61368   1.000
    O124    O    0.36342   0.18906   0.61368   1.000
    O125    O    0.32563   0.68912   0.11369   1.000
    O126    O    0.63659   0.81097   0.38630   1.000
    O127    O    0.13659   0.31096   0.38630   1.000
    O128    O    0.82563   0.68912   0.11369   1.000
    O129    O    0.17440   0.31090   0.88629   1.000
    O130    O    0.67440   0.81091   0.88629   1.000
    O131    O    0.13660   0.81097   0.38629   1.000
    O132    O    0.82562   0.18912   0.11369   1.000
    O133    O    0.67439   0.31090   0.88629   1.000
    O134    O    0.86326   0.18906   0.61368   1.000
    O135    O    0.36343   0.68906   0.61368   1.000
loop_
    _geom_bond_atom_site_label_1
    _geom_bond_atom_site_label_2
    _geom_bond_distance
    _geom_bond_site_symmetry_2
    _ccdc_geom_bond_type
    Zr16   O17       1.86754  1_554   S
    N8     O17       4.60350      .   S
    Zr16   O18       1.42013      .   S
    N12    O18       3.69406      .   S
    Zr16   O19       1.98633  1_554   S
    N6     O19       5.00689      .   S
    Zr20   O21       1.91394  1_556   S
    N13    O21       5.06529      .   S
    Zr20   O22       2.05996  1_556   S
    N14    O22       5.18022  1_545   S
    Zr20   O23       2.06132      .   S
    N6     O23       5.18381  1_655   S
    Zr20   O24       1.91386      .   S
    N1     O24       5.06519      .   S
    Zr25   O26       1.91254      .   S
    N4     O26       5.06262      .   S
    Zr25   O27       2.05985  1_455   S
    N10    O27       5.18004  1_565   S
    Zr25   O28       1.91390  1_455   S
    N6     O28       5.06627      .   S
    Zr25   O29       2.05988      .   S
    N1     O29       5.18011      .   S
    Zr30   O31       1.98894  1_554   S
    N8     O31       5.01424      .   S
    Zr30   O32       1.42009      .   S
    N5     O32       3.69394      .   S
    Zr30   O33       1.87001  1_554   S
    N6     O33       4.61062  1_655   S
    Zr34   O35       1.87000  1_554   S
    N7     O35       4.61058  1_665   S
    Zr34   O36       1.42013      .   S
    N4     O36       3.69410      .   S
    Zr34   O37       1.98894  1_554   S
    N0     O37       5.01423  1_565   S
    Zr38   O39       1.91389  1_455   S
    N7     O39       5.06621      .   S
    Zr38   O40       2.05983      .   S
    N3     O40       5.17999  1_545   S
    Zr38   O41       2.05991  1_455   S
    N9     O41       5.18013      .   S
    Zr38   O42       1.91275      .   S
    N5     O42       5.06269      .   S
    Zr43   O44       1.42198      .   S
    N13    O44       3.69829      .   S
    Zr43   O45       1.98910      .   S
    N3     O45       5.01487  1_445   S
    Zr43   O46       1.86683      .   S
    N2     O46       4.60132  1_545   S
    Zr47   O48       1.42009      .   S
    N8     O48       3.69405      .   S
    Zr47   O49       1.98893  1_556   S
    N5     O49       5.01417      .   S
    Zr47   O50       1.86749  1_556   S
    N12    O50       4.60341      .   S
    Zr51   O52       1.98898  1_556   S
    N4     O52       5.01428  1_545   S
    Zr51   O53       1.86748  1_556   S
    N14    O53       4.60336  1_545   S
    Zr51   O54       1.42014      .   S
    N0     O54       3.69399      .   S
    Zr55   O56       1.86747  1_556   S
    N5     O56       4.60336  1_455   S
    Zr55   O57       1.98896  1_556   S
    N12    O57       5.01426      .   S
    Zr55   O58       1.41757      .   S
    N6     O58       3.68571      .   S
    Zr59   O60       2.05988      .   S
    N15    O60       5.18009      .   S
    Zr59   O61       2.05984      .   S
    N2     O61       5.18001  1_545   S
    Zr59   O62       1.91251      .   S
    N0     O62       5.06255      .   S
    Zr59   O63       1.91254      .   S
    N12    O63       5.06264      .   S
    Zr64   O65       1.41757      .   S
    N7     O65       3.68575      .   S
    Zr64   O66       1.86749  1_556   S
    N4     O66       4.60341  1_445   S
    Zr64   O67       1.98896  1_556   S
    N14    O67       5.01424  1_545   S
    Zr68   O69       2.06000      .   S
    N8     O69       5.18032      .   S
    Zr68   O70       1.91388  1_556   S
    N10    O70       5.06521      .   S
    Zr68   O71       1.91394      .   S
    N11    O71       5.06534      .   S
    Zr68   O72       2.05991  1_556   S
    N4     O72       5.18016  1_445   S
    Zr73   O74       1.86688      .   S
    N13    O74       4.60141  1_565   S
    Zr73   O75       1.42196      .   S
    N2     O75       3.69823      .   S
    Zr73   O76       1.98910      .   S
    N10    O76       5.01487  1_665   S
    Zr77   O78       1.42004      .   S
    N14    O78       3.69409      .   S
    Zr77   O79       1.98634  1_554   S
    N7     O79       5.00692  1_565   S
    Zr77   O80       1.86753  1_554   S
    N0     O80       4.60345  1_565   S
    Zr81   O82       1.42196      .   S
    N11    O82       3.69823      .   S
    Zr81   O83       1.86687      .   S
    N15    O83       4.60138      .   S
    Zr81   O84       1.98912      .   S
    N9     O84       5.01494  1_655   S
    Zr85   O86       1.91401  1_554   S
    N2     O86       5.06543      .   S
    Zr85   O87       1.91385      .   S
    N9     O87       5.06513      .   S
    Zr85   O88       2.05998  1_554   S
    N0     O88       5.18026  1_565   S
    Zr85   O89       2.05991      .   S
    N5     O89       5.18015  1_455   S
    Zr90   O91       1.86688      .   S
    N9     O91       4.60144      .   S
    Zr90   O92       1.98909      .   S
    N15    O92       5.01486      .   S
    Zr90   O93       1.42199      .   S
    N1     O93       3.69832  1_455   S
    Zr94   O95       1.91251      .   S
    N8     O95       5.06256      .   S
    Zr94   O96       2.05989      .   S
    N13    O96       5.18004  1_565   S
    Zr94   O97       2.05987      .   S
    N11    O97       5.18007      .   S
    Zr94   O98       1.91255      .   S
    N14    O98       5.06264      .   S
    Zr99   O100      1.42199      .   S
    N10    O100      3.69835  1_655   S
    Zr99   O101      1.98907      .   S
    N2     O101      5.01476  1_545   S
    Zr99   O102      1.86686      .   S
    N3     O102      4.60138  1_545   S
    Zr103  O104      1.98911      .   S
    N11    O104      5.01486      .   S
    Zr103  O105      1.86686      .   S
    N1     O105      4.60141      .   S
    Zr103  O106      1.42197      .   S
    N9     O106      3.69831  1_655   S
    Zr107  O108      1.86684      .   S
    N11    O108      4.60134      .   S
    Zr107  O109      1.42196      .   S
    N15    O109      3.69825      .   S
    Zr107  O110      1.98912      .   S
    N1     O110      5.01493  1_455   S
    Zr111  O112      2.06136  1_554   S
    N7     O112      5.18387  1_665   S
    Zr111  O113      1.91399  1_554   S
    N3     O113      5.06540      .   S
    Zr111  O114      1.91385      .   S
    N15    O114      5.06514      .   S
    Zr111  O115      2.05992      .   S
    N12    O115      5.18018      .   S
    Zr116  O117      1.98907      .   S
    N13    O117      5.01481  1_565   S
    Zr116  O118      1.42200      .   S
    N3     O118      3.69834  1_455   S
    Zr116  O119      1.86688      .   S
    N10    O119      4.60142  1_565   S
    Zr51   O120      2.24722      .   S
    N1     O120      5.68985      .   S
    Zr34   O121      2.24722      .   S
    N15    O121      5.68983      .   S
    N14    O122      5.68962      .   S
    Zr107  O122      2.24716      .   S
    N7     O123      5.69051      .   S
    Zr90   O123      2.24737      .   S
    N8     O124      5.68958      .   S
    Zr73   O124      2.24715      .   S
    N13    O125      5.68977      .   S
    Zr30   O125      2.24719      .   S
    Zr43   O126      2.24717      .   S
    N12    O126      5.68963      .   S
    N4     O127      5.68959      .   S
    Zr103  O127      2.24718      .   S
    Zr16   O128      2.24720      .   S
    N10    O128      5.68980      .   S
    N3     O129      5.68984      .   S
    Zr47   O129      2.24722      .   S
    N11    O130      5.68987      .   S
    Zr64   O130      2.24723      .   S
    Zr99   O131      2.24727      .   S
    N5     O131      5.68974      .   S
    Zr77   O132      2.24721      .   S
    N9     O132      5.68982      .   S
    N2     O133      5.68987      .   S
    Zr55   O133      2.24723      .   S
    Zr116  O134      2.24737      .   S
    N6     O134      5.69062      .   S
    N0     O135      5.68955      .   S
    Zr81   O135      2.24714      .   S
