# CIF file generated by openbabel 2.4.90, see http://openbabel.sf.net
data_I
_chemical_name_common ''
_cell_length_a 20.297
_cell_length_b 22.807
_cell_length_c 18.089
_cell_angle_alpha 99.858
_cell_angle_beta 89.934
_cell_angle_gamma 116.458
_space_group_name_H-M_alt 'P 1'
_space_group_name_Hall 'P 1'
loop_
    _symmetry_equiv_pos_as_xyz
    x,y,z
loop_
    _atom_site_label
    _atom_site_type_symbol
    _atom_site_fract_x
    _atom_site_fract_y
    _atom_site_fract_z
    _atom_site_occupancy
    N0      N    0.45385   0.92826   0.83133   1.000
    N1      N    0.02554   0.57170   0.66866   1.000
    N2      N    0.52554   0.07170   0.66865   1.000
    N3      N    0.02554   0.07170   0.66866   1.000
    N4      N    0.04617   0.07176   0.16864   1.000
    N5      N    0.04617   0.57177   0.16862   1.000
    N6      N    0.95321   0.42826   0.83133   1.000
    N7      N    0.95321   0.92826   0.83132   1.000
    N8      N    0.45385   0.42826   0.83133   1.000
    N9      N    0.97448   0.42832   0.33132   1.000
    N10     N    0.97448   0.92832   0.33132   1.000
    N11     N    0.52554   0.57170   0.66865   1.000
    N12     N    0.54617   0.57176   0.16864   1.000
    N13     N    0.47448   0.92832   0.33131   1.000
    N14     N    0.54617   0.07176   0.16864   1.000
    N15     N    0.47448   0.42832   0.33132   1.000
    Zr16    Zr   0.76995   0.59537   0.02610   1.000
    O17     O    0.82182   0.69184   0.11029   1.000
    O18     O    0.67996   0.55326   0.96711   1.000
    O19     O    0.70609   0.57737   0.06675   1.000
    O20     O    0.82918   0.55495   0.97143   1.000
    O21     O    0.82943   0.68640   0.11710   1.000
    Zr22    Zr   0.25001   0.75001   0.99998   1.000
    O23     O    0.30936   0.78849   0.09396   1.000
    O24     O    0.33787   0.84075   0.04374   1.000
    O25     O    0.16199   0.65927   0.95622   1.000
    O26     O    0.19066   0.71153   0.90601   1.000
    Zr27    Zr   0.00001   0.25001   0.49999   1.000
    O28     O    0.02089   0.21157   0.40600   1.000
    O29     O    0.99714   0.15929   0.45622   1.000
    O30     O    0.97896   0.28845   0.59398   1.000
    O31     O    0.00287   0.34073   0.54376   1.000
    Zr32    Zr   0.26996   0.59538   0.02610   1.000
    O33     O    0.32934   0.55495   0.97144   1.000
    O34     O    0.32183   0.69184   0.11029   1.000
    O35     O    0.32943   0.68640   0.11709   1.000
    O36     O    0.20609   0.57737   0.06675   1.000
    O37     O    0.17981   0.55326   0.96711   1.000
    Zr38    Zr   0.26995   0.09537   0.02610   1.000
    O39     O    0.17980   0.05325   0.96711   1.000
    O40     O    0.32943   0.18640   0.11710   1.000
    O41     O    0.20609   0.07737   0.06675   1.000
    O42     O    0.32182   0.19184   0.11029   1.000
    O43     O    0.32934   0.05494   0.97143   1.000
    Zr44    Zr   0.00000   0.75001   0.49998   1.000
    O45     O    0.97896   0.78845   0.59397   1.000
    O46     O    0.00287   0.84073   0.54376   1.000
    O47     O    0.99714   0.65930   0.45621   1.000
    O48     O    0.02089   0.71158   0.40598   1.000
    Zr49    Zr   0.67466   0.90471   0.47390   1.000
    O50     O    0.62880   0.92272   0.43324   1.000
    O51     O    0.77443   0.94510   0.52855   1.000
    O52     O    0.62674   0.94680   0.53289   1.000
    O53     O    0.63005   0.80826   0.38970   1.000
    O54     O    0.64313   0.81367   0.38290   1.000
    Zr55    Zr   0.23007   0.40465   0.97388   1.000
    O56     O    0.29394   0.42266   0.93323   1.000
    O57     O    0.17820   0.30818   0.88969   1.000
    O58     O    0.17060   0.31363   0.88288   1.000
    O59     O    0.17069   0.44508   0.02854   1.000
    O60     O    0.32006   0.44677   0.03287   1.000
    Zr61    Zr   0.23007   0.90465   0.97388   1.000
    O62     O    0.17820   0.80819   0.88969   1.000
    O63     O    0.17069   0.94508   0.02854   1.000
    O64     O    0.17060   0.81363   0.88288   1.000
    O65     O    0.32006   0.94677   0.03287   1.000
    O66     O    0.29394   0.92266   0.93322   1.000
    Zr67    Zr   0.73006   0.40465   0.97388   1.000
    O68     O    0.67059   0.31363   0.88288   1.000
    O69     O    0.67819   0.30818   0.88969   1.000
    O70     O    0.82006   0.44677   0.03286   1.000
    O71     O    0.67068   0.44508   0.02854   1.000
    O72     O    0.79377   0.42266   0.93323   1.000
    Zr73    Zr   0.50001   0.75001   0.49999   1.000
    O74     O    0.49714   0.65930   0.45622   1.000
    O75     O    0.50287   0.84073   0.54376   1.000
    O76     O    0.47913   0.78845   0.59398   1.000
    O77     O    0.52089   0.71158   0.40600   1.000
    Zr78    Zr   0.73007   0.90465   0.97388   1.000
    O79     O    0.79378   0.92266   0.93322   1.000
    O80     O    0.82006   0.94677   0.03287   1.000
    O81     O    0.67820   0.80819   0.88969   1.000
    O82     O    0.67060   0.81363   0.88288   1.000
    O83     O    0.67069   0.94508   0.02854   1.000
    Zr84    Zr   0.75001   0.75002   0.99999   1.000
    O85     O    0.66215   0.65927   0.95623   1.000
    O86     O    0.80936   0.78849   0.09397   1.000
    O87     O    0.69066   0.71154   0.90601   1.000
    O88     O    0.83787   0.84075   0.04375   1.000
    Zr89    Zr   0.32535   0.09531   0.52608   1.000
    O90     O    0.35688   0.18635   0.61708   1.000
    O91     O    0.36996   0.19176   0.61028   1.000
    O92     O    0.37327   0.05322   0.46709   1.000
    O93     O    0.37122   0.07731   0.56674   1.000
    O94     O    0.22559   0.05493   0.47143   1.000
    Zr95    Zr   0.76995   0.09537   0.02610   1.000
    O96     O    0.70608   0.07736   0.06675   1.000
    O97     O    0.82917   0.05494   0.97143   1.000
    O98     O    0.82942   0.18640   0.11710   1.000
    O99     O    0.82182   0.19184   0.11029   1.000
    O100    O    0.67996   0.05325   0.96711   1.000
    Zr101   Zr   0.32536   0.59532   0.52608   1.000
    O102    O    0.37122   0.57731   0.56674   1.000
    O103    O    0.37327   0.55322   0.46709   1.000
    O104    O    0.22559   0.55493   0.47143   1.000
    O105    O    0.35689   0.68635   0.61708   1.000
    O106    O    0.36997   0.69177   0.61028   1.000
    Zr107   Zr   0.75001   0.25001   0.00000   1.000
    O108    O    0.69066   0.21153   0.90602   1.000
    O109    O    0.80936   0.28849   0.09398   1.000
    O110    O    0.66215   0.15927   0.95623   1.000
    O111    O    0.83787   0.34075   0.04375   1.000
    Zr112   Zr   0.82535   0.59532   0.52608   1.000
    O113    O    0.86980   0.69177   0.61028   1.000
    O114    O    0.85672   0.68635   0.61707   1.000
    O115    O    0.87327   0.55322   0.46709   1.000
    O116    O    0.72559   0.55493   0.47143   1.000
    O117    O    0.87122   0.57731   0.56674   1.000
    Zr118   Zr   0.50001   0.25001   0.49999   1.000
    O119    O    0.47912   0.28845   0.59398   1.000
    O120    O    0.49714   0.15929   0.45621   1.000
    O121    O    0.50287   0.34073   0.54376   1.000
    O122    O    0.52089   0.21157   0.40600   1.000
    Zr123   Zr   0.17467   0.90471   0.47390   1.000
    O124    O    0.12880   0.92272   0.43324   1.000
    O125    O    0.27443   0.94510   0.52855   1.000
    O126    O    0.12675   0.94680   0.53289   1.000
    O127    O    0.13006   0.80826   0.38968   1.000
    O128    O    0.14314   0.81367   0.38290   1.000
    Zr129   Zr   0.17466   0.40471   0.47390   1.000
    O130    O    0.14313   0.31367   0.38290   1.000
    O131    O    0.13005   0.30826   0.38970   1.000
    O132    O    0.27443   0.44510   0.52855   1.000
    O133    O    0.12674   0.44680   0.53289   1.000
    O134    O    0.12880   0.42271   0.43324   1.000
    Zr135   Zr   0.67466   0.40471   0.47390   1.000
    O136    O    0.62674   0.44680   0.53289   1.000
    O137    O    0.63005   0.30826   0.38970   1.000
    O138    O    0.64313   0.31367   0.38290   1.000
    O139    O    0.62879   0.42271   0.43324   1.000
    O140    O    0.77442   0.44510   0.52855   1.000
    Zr141   Zr   0.25001   0.25001   0.00000   1.000
    O142    O    0.16199   0.15927   0.95623   1.000
    O143    O    0.19066   0.21153   0.90602   1.000
    O144    O    0.30936   0.28849   0.09398   1.000
    O145    O    0.33788   0.34075   0.04376   1.000
    Zr146   Zr   0.82535   0.09531   0.52608   1.000
    O147    O    0.72559   0.05493   0.47143   1.000
    O148    O    0.87122   0.07731   0.56674   1.000
    O149    O    0.87327   0.05322   0.46709   1.000
    O150    O    0.85672   0.18635   0.61707   1.000
    O151    O    0.86980   0.19176   0.61028   1.000
loop_
    _geom_bond_atom_site_label_1
    _geom_bond_atom_site_label_2
    _geom_bond_distance
    _geom_bond_site_symmetry_2
    _ccdc_geom_bond_type
    Zr16   O17       2.24955      .   S
    N10    O17       5.69462      .   S
    Zr16   O18       1.86754  1_554   S
    N8     O18       4.60350      .   S
    Zr16   O19       1.42013      .   S
    N12    O19       3.69406      .   S
    Zr16   O20       1.98633  1_554   S
    N6     O20       5.00689      .   S
    Zr16   O21       2.25339      .   S
    N10    O21       5.68835      .   S
    Zr22   O23       1.91394  1_556   S
    N13    O23       5.06529      .   S
    Zr22   O24       2.05996  1_556   S
    N14    O24       5.18022  1_545   S
    Zr22   O25       2.06132      .   S
    N6     O25       5.18381  1_655   S
    Zr22   O26       1.91386      .   S
    N1     O26       5.06519      .   S
    Zr27   O28       1.91254      .   S
    N4     O28       5.06262      .   S
    Zr27   O29       2.05985  1_455   S
    N10    O29       5.18004  1_565   S
    Zr27   O30       1.91390  1_455   S
    N6     O30       5.06627      .   S
    Zr27   O31       2.05988      .   S
    N1     O31       5.18011      .   S
    Zr32   O33       1.98894  1_554   S
    N8     O33       5.01424      .   S
    Zr32   O34       2.24954      .   S
    N13    O34       5.69459      .   S
    Zr32   O35       2.25337      .   S
    N13    O35       5.68833      .   S
    Zr32   O36       1.42009      .   S
    N5     O36       3.69394      .   S
    Zr32   O37       1.87001  1_554   S
    N6     O37       4.61062  1_655   S
    Zr38   O39       1.87000  1_554   S
    N7     O39       4.61058  1_665   S
    Zr38   O40       2.25340      .   S
    N15    O40       5.68839      .   S
    Zr38   O41       1.42013      .   S
    N4     O41       3.69410      .   S
    Zr38   O42       2.24957      .   S
    N15    O42       5.69464      .   S
    Zr38   O43       1.98894  1_554   S
    N0     O43       5.01423  1_565   S
    Zr44   O45       1.91389  1_455   S
    N7     O45       5.06621      .   S
    Zr44   O46       2.05983      .   S
    N3     O46       5.17999  1_545   S
    Zr44   O47       2.05991  1_455   S
    N9     O47       5.18013      .   S
    Zr44   O48       1.91275      .   S
    N5     O48       5.06269      .   S
    Zr49   O50       1.42198      .   S
    N13    O50       3.69829      .   S
    Zr49   O51       1.98910      .   S
    N3     O51       5.01487  1_445   S
    Zr49   O52       1.86683      .   S
    N2     O52       4.60132  1_545   S
    Zr49   O53       2.24939      .   S
    N12    O53       5.69455      .   S
    Zr49   O54       2.25347      .   S
    N12    O54       5.68807      .   S
    Zr55   O56       1.42009      .   S
    N8     O56       3.69405      .   S
    Zr55   O57       2.24956      .   S
    N3     O57       5.69466      .   S
    Zr55   O58       2.25341      .   S
    N3     O58       5.68840      .   S
    Zr55   O59       1.98893  1_556   S
    N5     O59       5.01417      .   S
    Zr55   O60       1.86749  1_556   S
    N12    O60       4.60341      .   S
    Zr61   O62       2.24956      .   S
    N1     O62       5.69467      .   S
    Zr61   O63       1.98898  1_556   S
    N4     O63       5.01428  1_545   S
    Zr61   O64       2.25341      .   S
    N1     O64       5.68840      .   S
    Zr61   O65       1.86748  1_556   S
    N14    O65       4.60336  1_545   S
    Zr61   O66       1.42014      .   S
    N0     O66       3.69399      .   S
    Zr67   O68       2.25342      .   S
    N2     O68       5.68842      .   S
    Zr67   O69       2.24957      .   S
    N2     O69       5.69469      .   S
    Zr67   O70       1.86747  1_556   S
    N5     O70       4.60336  1_455   S
    Zr67   O71       1.98896  1_556   S
    N12    O71       5.01426      .   S
    Zr67   O72       1.41757      .   S
    N6     O72       3.68571      .   S
    Zr73   O74       2.05988      .   S
    N15    O74       5.18009      .   S
    Zr73   O75       2.05984      .   S
    N2     O75       5.18001  1_545   S
    Zr73   O76       1.91251      .   S
    N0     O76       5.06255      .   S
    Zr73   O77       1.91254      .   S
    N12    O77       5.06264      .   S
    Zr78   O79       1.41757      .   S
    N7     O79       3.68575      .   S
    Zr78   O80       1.86749  1_556   S
    N4     O80       4.60341  1_445   S
    Zr78   O81       2.24957      .   S
    N11    O81       5.69469      .   S
    Zr78   O82       2.25341      .   S
    N11    O82       5.68842      .   S
    Zr78   O83       1.98896  1_556   S
    N14    O83       5.01424  1_545   S
    Zr84   O85       2.06000      .   S
    N8     O85       5.18032      .   S
    Zr84   O86       1.91388  1_556   S
    N10    O86       5.06521      .   S
    Zr84   O87       1.91394      .   S
    N11    O87       5.06534      .   S
    Zr84   O88       2.05991  1_556   S
    N4     O88       5.18016  1_445   S
    Zr89   O90       2.25344      .   S
    N8     O90       5.68804      .   S
    Zr89   O91       2.24938      .   S
    N8     O91       5.69450      .   S
    Zr89   O92       1.86688      .   S
    N13    O92       4.60141  1_565   S
    Zr89   O93       1.42196      .   S
    N2     O93       3.69823      .   S
    Zr89   O94       1.98910      .   S
    N10    O94       5.01487  1_665   S
    Zr95   O96       1.42004      .   S
    N14    O96       3.69409      .   S
    Zr95   O97       1.98634  1_554   S
    N7     O97       5.00692  1_565   S
    Zr95   O98       2.25339      .   S
    N9     O98       5.68838      .   S
    Zr95   O99       2.24956      .   S
    N9     O99       5.69463      .   S
    Zr95   O100      1.86753  1_554   S
    N0     O100      4.60345  1_565   S
    Zr101  O102      1.42196      .   S
    N11    O102      3.69823      .   S
    Zr101  O103      1.86687      .   S
    N15    O103      4.60138      .   S
    Zr101  O104      1.98912      .   S
    N9     O104      5.01494  1_655   S
    Zr101  O105      2.25343      .   S
    N0     O105      5.68801      .   S
    Zr101  O106      2.24937      .   S
    N0     O106      5.69447      .   S
    Zr107  O108      1.91401  1_554   S
    N2     O108      5.06543      .   S
    Zr107  O109      1.91385      .   S
    N9     O109      5.06513      .   S
    Zr107  O110      2.05998  1_554   S
    N0     O110      5.18026  1_565   S
    Zr107  O111      2.05991      .   S
    N5     O111      5.18015  1_455   S
    Zr112  O113      2.24946      .   S
    N7     O113      5.69560      .   S
    Zr112  O114      2.25381      .   S
    N7     O114      5.68879      .   S
    Zr112  O115      1.86688      .   S
    N9     O115      4.60144      .   S
    Zr112  O116      1.98909      .   S
    N15    O116      5.01486      .   S
    Zr112  O117      1.42199      .   S
    N1     O117      3.69832  1_455   S
    Zr118  O119      1.91251      .   S
    N8     O119      5.06256      .   S
    Zr118  O120      2.05989      .   S
    N13    O120      5.18004  1_565   S
    Zr118  O121      2.05987      .   S
    N11    O121      5.18007      .   S
    Zr118  O122      1.91255      .   S
    N14    O122      5.06264      .   S
    Zr123  O124      1.42199      .   S
    N10    O124      3.69835  1_655   S
    Zr123  O125      1.98907      .   S
    N2     O125      5.01476  1_545   S
    Zr123  O126      1.86686      .   S
    N3     O126      4.60138  1_545   S
    Zr123  O127      2.24954      .   S
    N5     O127      5.69461      .   S
    Zr123  O128      2.25353      .   S
    N5     O128      5.68823      .   S
    Zr129  O130      2.25349      .   S
    N4     O130      5.68803      .   S
    Zr129  O131      2.24939      .   S
    N4     O131      5.69452      .   S
    Zr129  O132      1.98911      .   S
    N11    O132      5.01486      .   S
    Zr129  O133      1.86686      .   S
    N1     O133      4.60141      .   S
    Zr129  O134      1.42197      .   S
    N9     O134      3.69831  1_655   S
    Zr135  O136      1.86684      .   S
    N11    O136      4.60134      .   S
    Zr135  O137      2.24939      .   S
    N14    O137      5.69454      .   S
    Zr135  O138      2.25347      .   S
    N14    O138      5.68807      .   S
    Zr135  O139      1.42196      .   S
    N15    O139      3.69825      .   S
    Zr135  O140      1.98912      .   S
    N1     O140      5.01493  1_455   S
    Zr141  O142      2.06136  1_554   S
    N7     O142      5.18387  1_665   S
    Zr141  O143      1.91399  1_554   S
    N3     O143      5.06540      .   S
    Zr141  O144      1.91385      .   S
    N15    O144      5.06514      .   S
    Zr141  O145      2.05992      .   S
    N12    O145      5.18018      .   S
    Zr146  O147      1.98907      .   S
    N13    O147      5.01481  1_565   S
    Zr146  O148      1.42200      .   S
    N3     O148      3.69834  1_455   S
    Zr146  O149      1.86688      .   S
    N10    O149      4.60142  1_565   S
    Zr146  O150      2.25378      .   S
    N6     O150      5.68892      .   S
    Zr146  O151      2.24948      .   S
    N6     O151      5.69568      .   S
