# CIF file generated by openbabel 2.4.90, see http://openbabel.sf.net
data_I
_chemical_name_common ''
_cell_length_a 9.647
_cell_length_b 19.512
_cell_length_c 23.029
_cell_angle_alpha 89.998
_cell_angle_beta 93.397
_cell_angle_gamma 89.999
_space_group_name_H-M_alt 'P 1'
_space_group_name_Hall 'P 1'
loop_
    _symmetry_equiv_pos_as_xyz
    x,y,z
loop_
    _atom_site_label
    _atom_site_type_symbol
    _atom_site_fract_x
    _atom_site_fract_y
    _atom_site_fract_z
    _atom_site_occupancy
    Cd0     Cd   0.00008   0.50000   0.49999   1.000
    Cd1     Cd   0.50010   0.99999   0.49999   1.000
    Cd2     Cd   0.50009   0.50000   0.49999   1.000
    Cd3     Cd   0.00004   0.25000   0.00000   1.000
    Cd4     Cd   0.00004   0.75001   0.99999   1.000
    Cd5     Cd   0.50005   0.25000   0.00000   1.000
    Cd6     Cd   0.50006   0.75001   0.99999   1.000
    Cd7     Cd   0.00009   0.99999   0.49999   1.000
