# CIF file generated by openbabel 2.4.90, see http://openbabel.sf.net
data_I
_chemical_name_common ''
_cell_length_a 9.647
_cell_length_b 19.512
_cell_length_c 23.029
_cell_angle_alpha 89.998
_cell_angle_beta 93.397
_cell_angle_gamma 89.999
_space_group_name_H-M_alt 'P 1'
_space_group_name_Hall 'P 1'
loop_
    _symmetry_equiv_pos_as_xyz
    x,y,z
loop_
    _atom_site_label
    _atom_site_type_symbol
    _atom_site_fract_x
    _atom_site_fract_y
    _atom_site_fract_z
    _atom_site_occupancy
    Zr0     Zr   0.00009   0.99999   0.49999   1.000
    Zr1     Zr   0.00008   0.50000   0.49999   1.000
    Zr2     Zr   0.50010   0.99999   0.49999   1.000
    Zr3     Zr   0.50009   0.50000   0.49999   1.000
    Zr4     Zr   0.00004   0.25000   0.00000   1.000
    Zr5     Zr   0.00004   0.75001   0.99999   1.000
    Zr6     Zr   0.50005   0.25000   0.00000   1.000
    Zr7     Zr   0.50006   0.75001   0.99999   1.000
    N8      N    0.72058   0.33097   0.07879   1.000
    O9      O    0.65711   0.28969   0.05612   1.000
    O10     O    0.83919   0.31263   0.05375   1.000
    N11     N    0.27953   0.58097   0.42107   1.000
    O12     O    0.16092   0.56264   0.44617   1.000
    O13     O    0.34301   0.53969   0.44381   1.000
    N14     N    0.22057   0.83097   0.07890   1.000
    O15     O    0.15711   0.78969   0.05617   1.000
    O16     O    0.33919   0.81264   0.05380   1.000
    N17     N    0.27953   0.08097   0.42107   1.000
    O18     O    0.34301   0.03969   0.44381   1.000
    O19     O    0.16093   0.06263   0.44617   1.000
    N20     N    0.27950   0.66903   0.92107   1.000
    O21     O    0.34298   0.71032   0.94380   1.000
    O22     O    0.16090   0.68737   0.94617   1.000
    N23     N    0.77950   0.16903   0.92106   1.000
    O24     O    0.84297   0.21031   0.94380   1.000
    O25     O    0.66090   0.18736   0.94617   1.000
    N26     N    0.27949   0.16902   0.92106   1.000
    O27     O    0.34297   0.21031   0.94380   1.000
    O28     O    0.16089   0.18736   0.94617   1.000
    N29     N    0.77954   0.58097   0.42106   1.000
    O30     O    0.66094   0.56264   0.44617   1.000
    O31     O    0.84301   0.53969   0.44380   1.000
    N32     N    0.72063   0.41903   0.57888   1.000
    O33     O    0.83923   0.43736   0.55379   1.000
    O34     O    0.65716   0.46031   0.55616   1.000
    N35     N    0.72059   0.83097   0.07879   1.000
    O36     O    0.83919   0.81264   0.05375   1.000
    O37     O    0.65712   0.78969   0.05611   1.000
    N38     N    0.72065   0.91839   0.57890   1.000
    O39     O    0.65717   0.95919   0.55617   1.000
    O40     O    0.83925   0.93704   0.55380   1.000
    N41     N    0.22061   0.41903   0.57890   1.000
    O42     O    0.15715   0.46031   0.55617   1.000
    O43     O    0.33922   0.43736   0.55380   1.000
    N44     N    0.77951   0.66903   0.92107   1.000
    O45     O    0.66091   0.68737   0.94617   1.000
    O46     O    0.84298   0.71031   0.94380   1.000
    N47     N    0.22057   0.33097   0.07879   1.000
    O48     O    0.15710   0.28969   0.05612   1.000
    O49     O    0.33918   0.31263   0.05375   1.000
    N50     N    0.22063   0.91839   0.57888   1.000
    O51     O    0.15716   0.95919   0.55616   1.000
    O52     O    0.33924   0.93704   0.55379   1.000
    N53     N    0.77954   0.08097   0.42106   1.000
    O54     O    0.84302   0.03969   0.44380   1.000
    O55     O    0.66094   0.06263   0.44617   1.000
loop_
    _geom_bond_atom_site_label_1
    _geom_bond_atom_site_label_2
    _geom_bond_distance
    _geom_bond_site_symmetry_2
    _ccdc_geom_bond_type
    N8     O9        1.12182      .   S
    Zr6    O9        2.08168      .   S
    N8     O10       1.35932      .   S
    Zr4    O10       2.37929  1_455   S
    N11    O12       1.36001      .   S
    Zr1    O12       2.38016      .   S
    N11    O13       1.12252      .   S
    Zr3    O13       2.08271      .   S
    N14    O15       1.12243      .   S
    Zr5    O15       2.08256  1_556   S
    N14    O16       1.36006      .   S
    Zr7    O16       2.38028  1_556   S
    N17    O18       1.12253      .   S
    Zr2    O18       2.08275  1_565   S
    N17    O19       1.36000      .   S
    Zr0    O19       2.38014  1_565   S
    N20    O21       1.12256      .   S
    Zr7    O21       2.08282      .   S
    N20    O22       1.36005      .   S
    Zr5    O22       2.38032      .   S
    N23    O24       1.12260      .   S
    Zr4    O24       2.08286  1_454   S
    N23    O25       1.36013      .   S
    Zr6    O25       2.38048  1_554   S
    N26    O27       1.12263      .   S
    Zr6    O27       2.08299  1_554   S
    N26    O28       1.36013      .   S
    Zr4    O28       2.38049  1_554   S
    N29    O30       1.36011      .   S
    Zr3    O30       2.38028      .   S
    N29    O31       1.12257      .   S
    Zr1    O31       2.08270  1_455   S
    N32    O33       1.35991      .   S
    Zr1    O33       2.37990  1_455   S
    N32    O34       1.12231      .   S
    Zr3    O34       2.08232      .   S
    N35    O36       1.35936      .   S
    Zr5    O36       2.37939  1_456   S
    N35    O37       1.12184      .   S
    Zr7    O37       2.08177  1_556   S
    N38    O39       1.11571      .   S
    Zr2    O39       2.09072      .   S
    N38    O40       1.36162      .   S
    Zr0    O40       2.38318  1_455   S
    N41    O42       1.12239      .   S
    Zr1    O42       2.08243      .   S
    N41    O43       1.36006      .   S
    Zr3    O43       2.38014      .   S
    N44    O45       1.36005      .   S
    Zr7    O45       2.38033      .   S
    N44    O46       1.12252      .   S
    Zr5    O46       2.08268  1_455   S
    N47    O48       1.12182      .   S
    Zr4    O48       2.08168      .   S
    N47    O49       1.35939      .   S
    Zr6    O49       2.37941      .   S
    N50    O51       1.11561      .   S
    Zr0    O51       2.09058      .   S
    N50    O52       1.36159      .   S
    Zr2    O52       2.38314      .   S
    N53    O54       1.12258      .   S
    Zr0    O54       2.08273  1_465   S
    N53    O55       1.36010      .   S
    Zr2    O55       2.38026  1_565   S
