# CIF file generated by openbabel 2.4.90, see http://openbabel.sf.net
data_I
_chemical_name_common ''
_cell_length_a 9.647
_cell_length_b 19.512
_cell_length_c 23.029
_cell_angle_alpha 89.998
_cell_angle_beta 93.397
_cell_angle_gamma 89.999
_space_group_name_H-M_alt 'P 1'
_space_group_name_Hall 'P 1'
loop_
    _symmetry_equiv_pos_as_xyz
    x,y,z
loop_
    _atom_site_label
    _atom_site_type_symbol
    _atom_site_fract_x
    _atom_site_fract_y
    _atom_site_fract_z
    _atom_site_occupancy
    Zr0     Zr   0.00009   0.99999   0.49999   1.000
    Zr1     Zr   0.00008   0.50000   0.49999   1.000
    Zr2     Zr   0.50010   0.99999   0.49999   1.000
    Zr3     Zr   0.50009   0.50000   0.49999   1.000
    Zr4     Zr   0.00004   0.25000   0.00000   1.000
    Zr5     Zr   0.00004   0.75001   0.99999   1.000
    Zr6     Zr   0.50005   0.25000   0.00000   1.000
    Zr7     Zr   0.50006   0.75001   0.99999   1.000
    N8      N    0.57595   0.19498   0.68854   1.000
    O9      O    0.52203   0.12179   0.60859   1.000
    N10     N    0.42419   0.80502   0.31142   1.000
    O11     O    0.47815   0.87821   0.39138   1.000
    N12     N    0.07524   0.19498   0.68854   1.000
    O13     O    0.02168   0.12179   0.60859   1.000
    N14     N    0.92418   0.30502   0.31138   1.000
    O15     O    0.97813   0.37821   0.39136   1.000
    N16     N    0.42416   0.44498   0.81140   1.000
    O17     O    0.47809   0.37179   0.89137   1.000
    N18     N    0.72058   0.33097   0.07879   1.000
    O19     O    0.65711   0.28969   0.05612   1.000
    O20     O    0.83919   0.31263   0.05375   1.000
    N21     N    0.42417   0.94473   0.81141   1.000
    O22     O    0.47810   0.87167   0.89137   1.000
    N23     N    0.27953   0.58097   0.42107   1.000
    O24     O    0.16092   0.56264   0.44617   1.000
    O25     O    0.34301   0.53969   0.44381   1.000
    N26     N    0.92417   0.94473   0.81141   1.000
    O27     O    0.97810   0.87167   0.89137   1.000
    N28     N    0.92420   0.80502   0.31138   1.000
    O29     O    0.97815   0.87821   0.39136   1.000
    N30     N    0.57594   0.05501   0.18855   1.000
    O31     O    0.52201   0.12821   0.10860   1.000
    N32     N    0.07524   0.05501   0.18854   1.000
    O33     O    0.02166   0.12821   0.10860   1.000
    N34     N    0.42418   0.30502   0.31138   1.000
    O35     O    0.47814   0.37821   0.39136   1.000
    N36     N    0.57594   0.55502   0.18855   1.000
    O37     O    0.52201   0.62821   0.10860   1.000
    N38     N    0.92417   0.44498   0.81140   1.000
    O39     O    0.97809   0.37179   0.89137   1.000
    N40     N    0.22057   0.83097   0.07890   1.000
    O41     O    0.15711   0.78969   0.05617   1.000
    O42     O    0.33919   0.81264   0.05380   1.000
    N43     N    0.57595   0.69499   0.68854   1.000
    O44     O    0.52204   0.62179   0.60859   1.000
    N45     N    0.07525   0.69499   0.68854   1.000
    O46     O    0.02168   0.62179   0.60859   1.000
    N47     N    0.27953   0.08097   0.42107   1.000
    O48     O    0.34301   0.03969   0.44381   1.000
    O49     O    0.16093   0.06263   0.44617   1.000
    N50     N    0.27950   0.66903   0.92107   1.000
    O51     O    0.34298   0.71032   0.94380   1.000
    O52     O    0.16090   0.68737   0.94617   1.000
    N53     N    0.77950   0.16903   0.92106   1.000
    O54     O    0.84297   0.21031   0.94380   1.000
    O55     O    0.66090   0.18736   0.94617   1.000
    N56     N    0.07524   0.55502   0.18854   1.000
    O57     O    0.02166   0.62821   0.10859   1.000
    N58     N    0.27949   0.16902   0.92106   1.000
    O59     O    0.34297   0.21031   0.94380   1.000
    O60     O    0.16089   0.18736   0.94617   1.000
    N61     N    0.77954   0.58097   0.42106   1.000
    O62     O    0.66094   0.56264   0.44617   1.000
    O63     O    0.84301   0.53969   0.44380   1.000
    N64     N    0.72063   0.41903   0.57888   1.000
    O65     O    0.83923   0.43736   0.55379   1.000
    O66     O    0.65716   0.46031   0.55616   1.000
    N67     N    0.72059   0.83097   0.07879   1.000
    O68     O    0.83919   0.81264   0.05375   1.000
    O69     O    0.65712   0.78969   0.05611   1.000
    N70     N    0.72065   0.91839   0.57890   1.000
    O71     O    0.65717   0.95919   0.55617   1.000
    O72     O    0.83925   0.93704   0.55380   1.000
    N73     N    0.22061   0.41903   0.57890   1.000
    O74     O    0.15715   0.46031   0.55617   1.000
    O75     O    0.33922   0.43736   0.55380   1.000
    N76     N    0.77951   0.66903   0.92107   1.000
    O77     O    0.66091   0.68737   0.94617   1.000
    O78     O    0.84298   0.71031   0.94380   1.000
    N79     N    0.22057   0.33097   0.07879   1.000
    O80     O    0.15710   0.28969   0.05612   1.000
    O81     O    0.33918   0.31263   0.05375   1.000
    N82     N    0.22063   0.91839   0.57888   1.000
    O83     O    0.15716   0.95919   0.55616   1.000
    O84     O    0.33924   0.93704   0.55379   1.000
    N85     N    0.77954   0.08097   0.42106   1.000
    O86     O    0.84302   0.03969   0.44380   1.000
    O87     O    0.66094   0.06263   0.44617   1.000
loop_
    _geom_bond_atom_site_label_1
    _geom_bond_atom_site_label_2
    _geom_bond_distance
    _geom_bond_site_symmetry_2
    _ccdc_geom_bond_type
    N8     O9        2.36368      .   S
    Zr2    O9        3.44744  1_565   S
    N10    O11       2.36370      .   S
    Zr2    O11       3.44746      .   S
    N12    O13       2.36308      .   S
    Zr0    O13       3.44737  1_565   S
    N14    O15       2.36410      .   S
    Zr1    O15       3.44789  1_455   S
    N16    O17       2.36393      .   S
    Zr6    O17       3.44778  1_554   S
    N18    O19       1.12182      .   S
    Zr6    O19       2.08168      .   S
    N18    O20       1.35932      .   S
    Zr4    O20       2.37929  1_455   S
    N21    O22       2.36224      .   S
    Zr7    O22       3.44579      .   S
    N23    O24       1.36001      .   S
    Zr1    O24       2.38016      .   S
    N23    O25       1.12252      .   S
    Zr3    O25       2.08271      .   S
    N26    O27       2.36227      .   S
    Zr5    O27       3.44583  1_455   S
    N28    O29       2.36405      .   S
    Zr0    O29       3.44780  1_455   S
    N30    O31       2.36359      .   S
    Zr6    O31       3.44736      .   S
    N32    O33       2.36292      .   S
    Zr4    O33       3.44721      .   S
    N34    O35       2.36412      .   S
    Zr3    O35       3.44791      .   S
    N36    O37       2.36366      .   S
    Zr7    O37       3.44745  1_556   S
    N38    O39       2.36391      .   S
    Zr4    O39       3.44778  1_454   S
    N40    O41       1.12243      .   S
    Zr5    O41       2.08256  1_556   S
    N40    O42       1.36006      .   S
    Zr7    O42       2.38028  1_556   S
    N43    O44       2.36371      .   S
    Zr3    O44       3.44746      .   S
    N45    O46       2.36312      .   S
    Zr1    O46       3.44741      .   S
    N47    O48       1.12253      .   S
    Zr2    O48       2.08275  1_565   S
    N47    O49       1.36000      .   S
    Zr0    O49       2.38014  1_565   S
    N50    O51       1.12256      .   S
    Zr7    O51       2.08282      .   S
    N50    O52       1.36005      .   S
    Zr5    O52       2.38032      .   S
    N53    O54       1.12260      .   S
    Zr4    O54       2.08286  1_454   S
    N53    O55       1.36013      .   S
    Zr6    O55       2.38048  1_554   S
    N56    O57       2.36298      .   S
    Zr5    O57       3.44730  1_556   S
    N58    O59       1.12263      .   S
    Zr6    O59       2.08299  1_554   S
    N58    O60       1.36013      .   S
    Zr4    O60       2.38049  1_554   S
    N61    O62       1.36011      .   S
    Zr3    O62       2.38028      .   S
    N61    O63       1.12257      .   S
    Zr1    O63       2.08270  1_455   S
    N64    O65       1.35991      .   S
    Zr1    O65       2.37990  1_455   S
    N64    O66       1.12231      .   S
    Zr3    O66       2.08232      .   S
    N67    O68       1.35936      .   S
    Zr5    O68       2.37939  1_456   S
    N67    O69       1.12184      .   S
    Zr7    O69       2.08177  1_556   S
    N70    O71       1.11571      .   S
    Zr2    O71       2.09072      .   S
    N70    O72       1.36162      .   S
    Zr0    O72       2.38318  1_455   S
    N73    O74       1.12239      .   S
    Zr1    O74       2.08243      .   S
    N73    O75       1.36006      .   S
    Zr3    O75       2.38014      .   S
    N76    O77       1.36005      .   S
    Zr7    O77       2.38033      .   S
    N76    O78       1.12252      .   S
    Zr5    O78       2.08268  1_455   S
    N79    O80       1.12182      .   S
    Zr4    O80       2.08168      .   S
    N79    O81       1.35939      .   S
    Zr6    O81       2.37941      .   S
    N82    O83       1.11561      .   S
    Zr0    O83       2.09058      .   S
    N82    O84       1.36159      .   S
    Zr2    O84       2.38314      .   S
    N85    O86       1.12258      .   S
    Zr0    O86       2.08273  1_465   S
    N85    O87       1.36010      .   S
    Zr2    O87       2.38026  1_565   S
