# CIF file generated by openbabel 2.4.90, see http://openbabel.sf.net
data_I
_chemical_name_common ''
_cell_length_a 11.307
_cell_length_b 24.27
_cell_length_c 22.852
_cell_angle_alpha 99.337
_cell_angle_beta 89.988
_cell_angle_gamma 90
_space_group_name_H-M_alt 'P 1'
_space_group_name_Hall 'P 1'
loop_
    _symmetry_equiv_pos_as_xyz
    x,y,z
loop_
    _atom_site_label
    _atom_site_type_symbol
    _atom_site_fract_x
    _atom_site_fract_y
    _atom_site_fract_z
    _atom_site_occupancy
    Ca0     Ca   0.13299   0.93241   0.77745   1.000
    Ca1     Ca   0.63279   0.43247   0.77741   1.000
    Ca2     Ca   0.63298   0.93241   0.77745   1.000
    Ca3     Ca   0.38265   0.31706   0.72265   1.000
    Ca4     Ca   0.38243   0.81703   0.72272   1.000
    Ca5     Ca   0.88264   0.31706   0.72265   1.000
    Ca6     Ca   0.88242   0.81703   0.72272   1.000
    Ca7     Ca   0.36705   0.06760   0.22250   1.000
    Ca8     Ca   0.36732   0.56752   0.22258   1.000
    Ca9     Ca   0.86704   0.06760   0.22250   1.000
    Ca10    Ca   0.86731   0.56752   0.22258   1.000
    Ca11    Ca   0.11772   0.18299   0.27728   1.000
    Ca12    Ca   0.11742   0.68291   0.27735   1.000
    Ca13    Ca   0.61771   0.18299   0.27728   1.000
    Ca14    Ca   0.61740   0.68291   0.27735   1.000
    H15     H    0.31926   0.13184   0.09917   1.000
    H16     H    0.31923   0.63189   0.09930   1.000
    H17     H    0.81925   0.13184   0.09917   1.000
    H18     H    0.81922   0.63188   0.09930   1.000
    H19     H    0.36544   0.10953   0.99118   1.000
    H20     H    0.36515   0.60958   0.99129   1.000
    H21     H    0.86543   0.10953   0.99118   1.000
    H22     H    0.86514   0.60958   0.99129   1.000
    H23     H    0.01914   0.03692   0.95781   1.000
    H24     H    0.01875   0.53700   0.95812   1.000
    H25     H    0.51913   0.03692   0.95781   1.000
    H26     H    0.51874   0.53700   0.95812   1.000
    H27     H    0.47403   0.05972   0.06632   1.000
    H28     H    0.47394   0.55979   0.06666   1.000
    H29     H    0.97402   0.05972   0.06632   1.000
    H30     H    0.97392   0.55979   0.06666   1.000
    H31     H    0.36626   0.14874   0.88062   1.000
    Ca32    Ca   0.13280   0.43247   0.77741   1.000
    H33     H    0.36584   0.64870   0.88074   1.000
    H34     H    0.86625   0.14874   0.88062   1.000
    H35     H    0.86583   0.64870   0.88074   1.000
    H36     H    0.32485   0.22805   0.82679   1.000
    H37     H    0.32458   0.72797   0.82683   1.000
    H38     H    0.82485   0.22805   0.82679   1.000
    H39     H    0.82457   0.72797   0.82683   1.000
    H40     H    0.48328   0.15888   0.77618   1.000
    H41     H    0.48296   0.65885   0.77622   1.000
    H42     H    0.98327   0.15888   0.77618   1.000
    H43     H    0.98295   0.65885   0.77622   1.000
    H44     H    0.02612   0.07697   0.82685   1.000
    H45     H    0.02564   0.57698   0.82690   1.000
    H46     H    0.52611   0.07697   0.82685   1.000
    H47     H    0.52563   0.57698   0.82699   1.000
    H48     H    0.06965   0.11850   0.40039   1.000
    H49     H    0.06925   0.61843   0.40050   1.000
    H50     H    0.56964   0.11850   0.40039   1.000
    H51     H    0.56924   0.61843   0.40050   1.000
    H52     H    0.11526   0.14045   0.50845   1.000
    H53     H    0.11492   0.64044   0.50850   1.000
    H54     H    0.61525   0.14045   0.50845   1.000
    H55     H    0.61491   0.64044   0.50855   1.000
    H56     H    0.26864   0.21280   0.54173   1.000
    H57     H    0.26833   0.71283   0.54183   1.000
    H58     H    0.76863   0.21280   0.54173   1.000
    H59     H    0.76833   0.71283   0.54183   1.000
    H60     H    0.22412   0.19035   0.43315   1.000
    H61     H    0.22377   0.69034   0.43325   1.000
    H62     H    0.72411   0.19036   0.43315   1.000
    H63     H    0.72377   0.69034   0.43325   1.000
    H64     H    0.11580   0.10087   0.61884   1.000
    H65     H    0.11551   0.60088   0.61885   1.000
    H66     H    0.61579   0.10087   0.61884   1.000
    H67     H    0.61550   0.60088   0.61885   1.000
    H68     H    0.07489   0.02157   0.67274   1.000
    H69     H    0.07454   0.52156   0.67272   1.000
    H70     H    0.57488   0.02157   0.67274   1.000
    H71     H    0.57453   0.52156   0.67272   1.000
    H72     H    0.23311   0.09044   0.72352   1.000
    H73     H    0.23280   0.59046   0.72352   1.000
    H74     H    0.73310   0.09044   0.72352   1.000
    H75     H    0.73279   0.59046   0.72352   1.000
    H76     H    0.27543   0.17235   0.67279   1.000
    H77     H    0.27518   0.67239   0.67282   1.000
    H78     H    0.77542   0.17235   0.67279   1.000
    H79     H    0.77517   0.67240   0.67282   1.000
    H80     H    0.18092   0.36812   0.90070   1.000
    H81     H    0.18082   0.86814   0.90080   1.000
    H82     H    0.68091   0.36812   0.90070   1.000
    H83     H    0.68081   0.86814   0.90080   1.000
    H84     H    0.13500   0.39044   0.00871   1.000
    H85     H    0.13466   0.89045   0.00879   1.000
    H86     H    0.63500   0.39044   0.00871   1.000
    H87     H    0.63465   0.89044   0.00879   1.000
    H88     H    0.48141   0.46302   0.04186   1.000
    H89     H    0.48098   0.96305   0.04215   1.000
    H90     H    0.98140   0.46302   0.04186   1.000
    H91     H    0.98097   0.96305   0.04215   1.000
    H92     H    0.02621   0.44023   0.93333   1.000
    H93     H    0.02606   0.94025   0.93364   1.000
    H94     H    0.52620   0.44023   0.93333   1.000
    H95     H    0.52605   0.94025   0.93364   1.000
    H96     H    0.13436   0.35131   0.11924   1.000
    H97     H    0.13383   0.85124   0.11936   1.000
    H98     H    0.63435   0.35131   0.11924   1.000
    H99     H    0.63382   0.85124   0.11936   1.000
    C100    C    0.62598   0.74661   0.76556   1.000
    C101    C    0.36419   0.14038   0.34534   1.000
    C102    C    0.36389   0.64032   0.34540   1.000
    C103    C    0.86418   0.14038   0.34534   1.000
    H104    H    0.17561   0.27205   0.17316   1.000
    H105    H    0.17521   0.77193   0.17319   1.000
    H106    H    0.67561   0.27205   0.17316   1.000
    H107    H    0.67520   0.77193   0.17319   1.000
    H108    H    0.01722   0.34118   0.22378   1.000
    H109    H    0.01679   0.84109   0.22381   1.000
    H110    H    0.51721   0.34118   0.22378   1.000
    H111    H    0.51678   0.84109   0.22381   1.000
    H112    H    0.47454   0.42305   0.17300   1.000
    H113    H    0.47397   0.92301   0.17314   1.000
    H114    H    0.97453   0.42305   0.17300   1.000
    H115    H    0.97396   0.92301   0.17314   1.000
    H116    H    0.43087   0.38155   0.59950   1.000
    H117    H    0.43053   0.88149   0.59958   1.000
    H118    H    0.93086   0.38155   0.59950   1.000
    H119    H    0.93053   0.88149   0.59958   1.000
    H120    H    0.38523   0.35954   0.49143   1.000
    H121    H    0.38490   0.85954   0.49152   1.000
    H122    H    0.88522   0.35954   0.49143   1.000
    H123    H    0.88490   0.85954   0.49152   1.000
    H124    H    0.23182   0.28715   0.45819   1.000
    H125    H    0.23152   0.78718   0.45824   1.000
    H126    H    0.73182   0.28716   0.45819   1.000
    H127    H    0.73151   0.78719   0.45824   1.000
    H128    H    0.27634   0.30964   0.56677   1.000
    H129    H    0.27604   0.80963   0.56682   1.000
    H130    H    0.77633   0.30964   0.56677   1.000
    H131    H    0.77604   0.80964   0.56682   1.000
    C132    C    0.38619   0.38997   0.84561   1.000
    C133    C    0.38624   0.88996   0.84582   1.000
    C134    C    0.88618   0.38997   0.84561   1.000
    C135    C    0.88623   0.88996   0.84582   1.000
    C136    C    0.35683   0.40301   0.91057   1.000
    H137    H    0.38466   0.39911   0.38116   1.000
    H138    H    0.38430   0.89911   0.38115   1.000
    H139    H    0.88465   0.39912   0.38116   1.000
    H140    H    0.88428   0.89911   0.38115   1.000
    H141    H    0.42561   0.47844   0.32729   1.000
    H142    H    0.42517   0.97841   0.32724   1.000
    H143    H    0.92560   0.47844   0.32729   1.000
    H144    H    0.92516   0.97842   0.32720   1.000
    H145    H    0.26737   0.40955   0.27649   1.000
    H146    H    0.26697   0.90957   0.27645   1.000
    H147    H    0.76736   0.40955   0.27649   1.000
    H148    H    0.76696   0.90957   0.27645   1.000
    H149    H    0.22501   0.32761   0.32719   1.000
    H150    H    0.22467   0.82764   0.32718   1.000
    H151    H    0.72500   0.32761   0.32700   1.000
    H152    H    0.72466   0.82764   0.32718   1.000
    C153    C    0.11378   0.11004   0.15410   1.000
    C154    C    0.11393   0.61003   0.15438   1.000
    C155    C    0.61377   0.11004   0.15413   1.000
    C156    C    0.61392   0.61003   0.15438   1.000
    C157    C    0.14335   0.09697   0.08919   1.000
    C158    C    0.14331   0.59701   0.08942   1.000
    C159    C    0.64334   0.09697   0.08919   1.000
    C160    C    0.64330   0.59701   0.08942   1.000
    C161    C    0.25361   0.11141   0.06805   1.000
    C162    C    0.25352   0.61146   0.06822   1.000
    C163    C    0.75361   0.11141   0.06805   1.000
    C164    C    0.75351   0.61145   0.06822   1.000
    C165    C    0.27959   0.09896   0.00771   1.000
    C166    C    0.27934   0.59901   0.00786   1.000
    C167    C    0.77958   0.09896   0.00771   1.000
    C168    C    0.77933   0.59901   0.00786   1.000
    C169    C    0.19534   0.07133   0.96870   1.000
    C170    C    0.19501   0.57139   0.96890   1.000
    C171    C    0.69533   0.07133   0.96870   1.000
    C172    C    0.69500   0.57138   0.96890   1.000
    C173    C    0.08423   0.05761   0.98891   1.000
    C174    C    0.08393   0.55769   0.98910   1.000
    C175    C    0.58422   0.05761   0.98891   1.000
    C176    C    0.58392   0.55769   0.98910   1.000
    C177    C    0.05908   0.07070   0.04921   1.000
    C178    C    0.05893   0.57077   0.04949   1.000
    C179    C    0.55907   0.07070   0.04921   1.000
    C180    C    0.55892   0.57077   0.04949   1.000
    C181    C    0.19783   0.10888   0.85730   1.000
    C182    C    0.19737   0.60887   0.85744   1.000
    C183    C    0.69782   0.10888   0.85730   1.000
    C184    C    0.69736   0.60887   0.85744   1.000
    C185    C    0.28195   0.15140   0.85831   1.000
    C186    C    0.28154   0.65136   0.85841   1.000
    C187    C    0.78194   0.15140   0.85830   1.000
    C188    C    0.78153   0.65136   0.85841   1.000
    C189    C    0.25838   0.19587   0.82854   1.000
    C190    C    0.25806   0.69580   0.82860   1.000
    C191    C    0.75836   0.19587   0.82854   1.000
    C192    C    0.75805   0.69580   0.82860   1.000
    C193    C    0.15032   0.19885   0.79909   1.000
    C194    C    0.15004   0.69879   0.79913   1.000
    C195    C    0.65031   0.19885   0.79909   1.000
    C196    C    0.65002   0.69879   0.79913   1.000
    C197    C    0.06648   0.15636   0.79951   1.000
    C198    C    0.06614   0.65633   0.79957   1.000
    C199    C    0.56647   0.15636   0.79951   1.000
    C200    C    0.56613   0.65633   0.79957   1.000
    C201    C    0.08973   0.11081   0.82798   1.000
    C202    C    0.08930   0.61080   0.82809   1.000
    C203    C    0.58972   0.11081   0.82798   1.000
    C204    C    0.58929   0.61080   0.82809   1.000
    C205    C    0.12620   0.24667   0.76550   1.000
    C206    C    0.12599   0.74661   0.76556   1.000
    C207    C    0.62619   0.24667   0.76550   1.000
    O208    O    0.15441   0.50443   0.86935   1.000
    O209    O    0.65475   0.00445   0.86913   1.000
    O210    O    0.65441   0.50443   0.86935   1.000
    O211    O    0.21534   0.27069   0.74748   1.000
    O212    O    0.21515   0.77063   0.74752   1.000
    O213    O    0.71533   0.27069   0.74748   1.000
    O214    O    0.71514   0.77063   0.74752   1.000
    O215    O    0.36159   0.04373   0.88971   1.000
    C216    C    0.86388   0.64032   0.34546   1.000
    C217    C    0.39359   0.15327   0.41031   1.000
    C218    C    0.39323   0.65323   0.41042   1.000
    C219    C    0.89358   0.15327   0.41031   1.000
    C220    C    0.89321   0.65323   0.41042   1.000
    C221    C    0.00380   0.13880   0.43149   1.000
    C222    C    0.00344   0.63876   0.43160   1.000
    C223    C    0.50379   0.13880   0.43149   1.000
    C224    C    0.50342   0.63876   0.43160   1.000
    C225    C    0.02945   0.15105   0.49188   1.000
    C226    C    0.02912   0.65104   0.49198   1.000
    C227    C    0.52944   0.15105   0.49188   1.000
    C228    C    0.52911   0.65104   0.49198   1.000
    C229    C    0.44499   0.17850   0.53092   1.000
    C230    C    0.44468   0.67852   0.53101   1.000
    C231    C    0.94498   0.17850   0.53092   1.000
    C232    C    0.94467   0.67852   0.53101   1.000
    C233    C    0.33394   0.19223   0.51065   1.000
    C234    C    0.33362   0.69224   0.51075   1.000
    C235    C    0.83393   0.19223   0.51065   1.000
    C236    C    0.83361   0.69225   0.51075   1.000
    C237    C    0.30909   0.17934   0.45030   1.000
    C238    C    0.30874   0.67933   0.45040   1.000
    C239    C    0.80908   0.17934   0.45030   1.000
    C240    C    0.80873   0.67934   0.45040   1.000
    C241    C    0.44725   0.14063   0.64226   1.000
    C242    C    0.44700   0.64066   0.64230   1.000
    C243    C    0.94724   0.14063   0.64226   1.000
    C244    C    0.94699   0.64066   0.64230   1.000
    C245    C    0.03154   0.09817   0.64120   1.000
    C246    C    0.03126   0.59818   0.64122   1.000
    C247    C    0.53153   0.09817   0.64120   1.000
    C248    C    0.53124   0.59818   0.64122   1.000
    C249    C    0.00825   0.05369   0.67101   1.000
    C250    C    0.00794   0.55369   0.67101   1.000
    C251    C    0.50824   0.05369   0.67101   1.000
    C252    C    0.50792   0.55369   0.67101   1.000
    C253    C    0.40032   0.05062   0.70050   1.000
    C254    C    0.40001   0.55064   0.70050   1.000
    C255    C    0.90031   0.05062   0.70058   1.000
    C256    C    0.90000   0.55064   0.70050   1.000
    C257    C    0.31624   0.09301   0.70010   1.000
    C258    C    0.31594   0.59303   0.70015   1.000
    C259    C    0.81623   0.09301   0.70010   1.000
    C260    C    0.81593   0.59303   0.70015   1.000
    C261    C    0.33921   0.13858   0.67163   1.000
    C262    C    0.33894   0.63861   0.67166   1.000
    C263    C    0.83920   0.13858   0.67163   1.000
    C264    C    0.83893   0.63861   0.67160   1.000
    C265    C    0.37675   0.00286   0.73433   1.000
    C266    C    0.37640   0.50289   0.73433   1.000
    C267    C    0.87674   0.00286   0.73433   1.000
    C268    C    0.87639   0.50289   0.73433   1.000
    C269    C    0.35673   0.90302   0.91077   1.000
    C270    C    0.85682   0.40301   0.91057   1.000
    C271    C    0.85672   0.90302   0.91077   1.000
    C272    C    0.24662   0.38856   0.93178   1.000
    C273    C    0.24647   0.88857   0.93192   1.000
    C274    C    0.74662   0.38855   0.93178   1.000
    C275    C    0.74646   0.88857   0.93192   1.000
    C276    C    0.22081   0.40100   0.99213   1.000
    C277    C    0.22051   0.90101   0.99226   1.000
    C278    C    0.72080   0.40100   0.99213   1.000
    C279    C    0.72050   0.90101   0.99226   1.000
    C280    C    0.30514   0.42863   0.03109   1.000
    C281    C    0.30476   0.92864   0.03127   1.000
    C282    C    0.80513   0.42863   0.03109   1.000
    C283    C    0.80475   0.92864   0.03127   1.000
    C284    C    0.41622   0.44233   0.01081   1.000
    C285    C    0.41588   0.94236   0.01105   1.000
    C286    C    0.91621   0.44233   0.01081   1.000
    C287    C    0.91587   0.94236   0.01105   1.000
    C288    C    0.44121   0.42924   0.95049   1.000
    C289    C    0.44101   0.92927   0.95075   1.000
    C290    C    0.94120   0.42924   0.95049   1.000
    C291    C    0.94100   0.92927   0.95075   1.000
    C292    C    0.30281   0.39115   0.14255   1.000
    C293    C    0.30227   0.89110   0.14268   1.000
    C294    C    0.80280   0.39115   0.14255   1.000
    C295    C    0.80226   0.89110   0.14268   1.000
    C296    C    0.21864   0.34866   0.14157   1.000
    C297    C    0.21814   0.84859   0.14160   1.000
    C298    C    0.71864   0.34866   0.14157   1.000
    C299    C    0.71813   0.84858   0.14167   1.000
    C300    C    0.24213   0.30422   0.17139   1.000
    C301    C    0.24170   0.80411   0.17140   1.000
    C302    C    0.74212   0.30422   0.17139   1.000
    C303    C    0.74169   0.80411   0.17144   1.000
    C304    C    0.35014   0.30124   0.20088   1.000
    C305    C    0.34974   0.80113   0.20090   1.000
    C306    C    0.85013   0.30124   0.20088   1.000
    C307    C    0.84974   0.80113   0.20090   1.000
    C308    C    0.43404   0.34370   0.20042   1.000
    C309    C    0.43359   0.84361   0.20040   1.000
    C310    C    0.93402   0.34370   0.20042   1.000
    C311    C    0.93358   0.84361   0.20048   1.000
    C312    C    0.41088   0.38922   0.17190   1.000
    C313    C    0.41036   0.88916   0.17201   1.000
    C314    C    0.91087   0.38922   0.17190   1.000
    C315    C    0.91035   0.88916   0.17201   1.000
    C316    C    0.37416   0.25342   0.23445   1.000
    C317    C    0.37384   0.75331   0.23446   1.000
    C318    C    0.87415   0.25342   0.23445   1.000
    C319    C    0.87383   0.75331   0.23446   1.000
    C320    C    0.13618   0.35966   0.65455   1.000
    C321    C    0.13595   0.85962   0.65460   1.000
    C322    C    0.63617   0.35966   0.65455   1.000
    C323    C    0.63594   0.85962   0.65460   1.000
    C324    C    0.10688   0.34675   0.58958   1.000
    C325    C    0.10659   0.84672   0.58966   1.000
    C326    C    0.60687   0.34675   0.58958   1.000
    C327    C    0.60657   0.84672   0.58966   1.000
    C328    C    0.49668   0.36122   0.56839   1.000
    C329    C    0.49637   0.86119   0.56840   1.000
    C330    C    0.99667   0.36122   0.56839   1.000
    C331    C    0.99636   0.86119   0.56840   1.000
    C332    C    0.47103   0.34894   0.50800   1.000
    C333    C    0.47071   0.84894   0.50809   1.000
    C334    C    0.97101   0.34894   0.50800   1.000
    C335    C    0.97070   0.84894   0.50809   1.000
    C336    C    0.05548   0.32146   0.46899   1.000
    C337    C    0.05517   0.82149   0.46905   1.000
    C338    C    0.55547   0.32146   0.46899   1.000
    C339    C    0.55516   0.82149   0.46905   1.000
    C340    C    0.16653   0.30774   0.48926   1.000
    C341    C    0.16622   0.80776   0.48931   1.000
    C342    C    0.66652   0.30774   0.48926   1.000
    C343    C    0.66621   0.80776   0.48931   1.000
    C344    C    0.19138   0.32065   0.54962   1.000
    C345    C    0.19108   0.82064   0.54967   1.000
    C346    C    0.69137   0.32065   0.54962   1.000
    C347    C    0.69107   0.82064   0.54967   1.000
    C348    C    0.05318   0.35934   0.35771   1.000
    C349    C    0.05285   0.85936   0.35772   1.000
    C350    C    0.55317   0.35934   0.35770   1.000
    C351    C    0.55284   0.85936   0.35772   1.000
    C352    C    0.46891   0.40182   0.35879   1.000
    C353    C    0.46855   0.90182   0.35878   1.000
    C354    C    0.96890   0.40182   0.35879   1.000
    C355    C    0.96854   0.90182   0.35878   1.000
    C356    C    0.49222   0.44630   0.32900   1.000
    C357    C    0.49182   0.94630   0.32897   1.000
    C358    C    0.99221   0.44630   0.32900   1.000
    C359    C    0.99181   0.94630   0.32897   1.000
    C360    C    0.10014   0.44936   0.29942   1.000
    C361    C    0.09974   0.94937   0.29900   1.000
    C362    C    0.60013   0.44936   0.29942   1.000
    C363    C    0.59973   0.94937   0.29900   1.000
    C364    C    0.18422   0.40697   0.29986   1.000
    C365    C    0.18383   0.90699   0.29984   1.000
    C366    C    0.68421   0.40697   0.29986   1.000
    C367    C    0.68383   0.90699   0.29984   1.000
    C368    C    0.16123   0.36140   0.32835   1.000
    C369    C    0.16088   0.86142   0.32834   1.000
    C370    C    0.66122   0.36140   0.32835   1.000
    C371    C    0.66087   0.86142   0.32834   1.000
    C372    C    0.12372   0.49711   0.26567   1.000
    C373    C    0.12329   0.99714   0.26565   1.000
    C374    C    0.62371   0.49711   0.26560   1.000
    C375    C    0.62328   0.99714   0.26565   1.000
    S376    S    0.23370   0.05105   0.89263   1.000
    S377    S    0.23328   0.55107   0.89281   1.000
    S378    S    0.73369   0.05105   0.89263   1.000
    S379    S    0.73327   0.55107   0.89281   1.000
    S380    S    0.48304   0.19860   0.60708   1.000
    S381    S    0.48280   0.69863   0.60715   1.000
    S382    S    0.98303   0.19860   0.60708   1.000
    S383    S    0.98279   0.69863   0.60715   1.000
    S384    S    0.26687   0.44894   0.10718   1.000
    S385    S    0.26640   0.94892   0.10734   1.000
    S386    S    0.76686   0.44894   0.10718   1.000
    S387    S    0.76639   0.94892   0.10734   1.000
    S388    S    0.01737   0.30137   0.39285   1.000
    S389    S    0.01708   0.80139   0.39200   1.000
    S390    S    0.51736   0.30137   0.39285   1.000
    S391    S    0.51707   0.80139   0.39200   1.000
    O392    O    0.19943   0.11925   0.19127   1.000
    O393    O    0.19962   0.61912   0.19149   1.000
    O394    O    0.69942   0.11926   0.19127   1.000
    O395    O    0.69961   0.61913   0.19149   1.000
    O396    O    0.00587   0.11363   0.16929   1.000
    O397    O    0.00604   0.61373   0.16959   1.000
    O398    O    0.50586   0.11363   0.16929   1.000
    O399    O    0.50603   0.61373   0.16959   1.000
    O400    O    0.01831   0.25824   0.75767   1.000
    O401    O    0.01811   0.75819   0.75760   1.000
    O402    O    0.51830   0.25824   0.75767   1.000
    O403    O    0.51809   0.75819   0.75760   1.000
    O404    O    0.15476   0.00445   0.86913   1.000
    O405    O    0.36117   0.54377   0.88984   1.000
    O406    O    0.86158   0.04373   0.88971   1.000
    O407    O    0.86116   0.54377   0.88984   1.000
    O408    O    0.44980   0.13159   0.30815   1.000
    O409    O    0.44959   0.63147   0.30831   1.000
    O410    O    0.94979   0.13159   0.30815   1.000
    O411    O    0.94958   0.63147   0.30831   1.000
    O412    O    0.25626   0.13648   0.33021   1.000
    O413    O    0.25600   0.63647   0.33028   1.000
    O414    O    0.75625   0.13648   0.33021   1.000
    O415    O    0.75599   0.63647   0.33028   1.000
    O416    O    0.26868   0.49109   0.74229   1.000
    O417    O    0.26904   0.99101   0.74229   1.000
    O418    O    0.76867   0.49109   0.74229   1.000
    O419    O    0.76903   0.99101   0.74229   1.000
    O420    O    0.40404   0.24515   0.63067   1.000
    O421    O    0.40383   0.74518   0.63076   1.000
    O422    O    0.90403   0.24515   0.63067   1.000
    O423    O    0.90382   0.74518   0.63076   1.000
    O424    O    0.46584   0.47917   0.75249   1.000
    O425    O    0.46622   0.97916   0.75248   1.000
    O426    O    0.96583   0.47917   0.75249   1.000
    O427    O    0.96621   0.97916   0.75248   1.000
    O428    O    0.11091   0.20602   0.61012   1.000
    O429    O    0.11068   0.70603   0.61015   1.000
    O430    O    0.61090   0.20602   0.61012   1.000
    O431    O    0.61067   0.70603   0.61015   1.000
    O432    O    0.30047   0.38087   0.80851   1.000
    O433    O    0.30055   0.88077   0.80870   1.000
    O434    O    0.80046   0.38087   0.80851   1.000
    O435    O    0.80054   0.88077   0.80870   1.000
    O436    O    0.49407   0.38627   0.83039   1.000
    O437    O    0.49413   0.88635   0.83063   1.000
    O438    O    0.99406   0.38627   0.83039   1.000
    O439    O    0.99412   0.88635   0.83063   1.000
    O440    O    0.48204   0.24185   0.24230   1.000
    O441    O    0.48172   0.74172   0.24232   1.000
    O442    O    0.98203   0.24185   0.24230   1.000
    O443    O    0.98171   0.74172   0.24232   1.000
    O444    O    0.34568   0.49559   0.13065   1.000
    O445    O    0.34530   0.99553   0.13080   1.000
    O446    O    0.84567   0.49559   0.13065   1.000
    O447    O    0.84529   0.99553   0.13084   1.000
    O448    O    0.28497   0.22939   0.25247   1.000
    O449    O    0.28468   0.72930   0.25252   1.000
    O450    O    0.78496   0.22939   0.25247   1.000
    O451    O    0.78467   0.72930   0.25252   1.000
    O452    O    0.13896   0.45622   0.11014   1.000
    O453    O    0.13850   0.95623   0.11026   1.000
    O454    O    0.63895   0.45622   0.11014   1.000
    O455    O    0.63849   0.95623   0.11026   1.000
    O456    O    0.05046   0.36852   0.69169   1.000
    O457    O    0.05030   0.86843   0.69180   1.000
    O458    O    0.55045   0.36852   0.69169   1.000
    O459    O    0.55029   0.86843   0.69180   1.000
    O460    O    0.24406   0.36352   0.66974   1.000
    O461    O    0.24386   0.86351   0.66978   1.000
    O462    O    0.74405   0.36352   0.66974   1.000
    O463    O    0.74385   0.86351   0.66978   1.000
    O464    O    0.23099   0.00899   0.25769   1.000
    O465    O    0.23144   0.50891   0.25771   1.000
    O466    O    0.73098   0.00899   0.25769   1.000
    O467    O    0.73143   0.50891   0.25771   1.000
    O468    O    0.09635   0.25482   0.36923   1.000
    O469    O    0.09607   0.75484   0.36929   1.000
    O470    O    0.59634   0.25482   0.36923   1.000
    O471    O    0.59606   0.75484   0.36929   1.000
    O472    O    0.03380   0.02084   0.24751   1.000
    O473    O    0.03427   0.52082   0.24751   1.000
    O474    O    0.53379   0.02084   0.24751   1.000
    O475    O    0.53426   0.52082   0.24751   1.000
    O476    O    0.38948   0.29396   0.38985   1.000
    O477    O    0.38921   0.79397   0.38987   1.000
    O478    O    0.88947   0.29396   0.38985   1.000
    O479    O    0.88919   0.79397   0.38987   1.000
loop_
    _geom_bond_atom_site_label_1
    _geom_bond_atom_site_label_2
    _geom_bond_distance
    _geom_bond_site_symmetry_2
    _ccdc_geom_bond_type
    C165   C161      1.39411      .   S
    C165   C169      1.39937  1_554   S
    C165   H19       1.08720  1_554   S
    C167   C163      1.39410      .   S
    C167   C171      1.39936  1_554   S
    C167   H21       1.08720  1_554   S
    C166   C162      1.39417      .   S
    C166   C170      1.39933  1_554   S
    C166   H20       1.08713  1_554   S
    C168   C164      1.39417      .   S
    C168   C172      1.39935  1_554   S
    C168   H22       1.08712  1_554   S
    H86    C278      1.08716  1_554   S
    H84    C276      1.08717  1_554   S
    H87    C279      1.08716  1_554   S
    H85    C277      1.08717  1_554   S
    C284   C280      1.39727      .   S
    C284   H88       1.08787      .   S
    C284   C288      1.39233  1_554   S
    C286   C282      1.39727      .   S
    C286   H90       1.08787      .   S
    C286   C290      1.39233  1_554   S
    C285   C281      1.39727      .   S
    C285   H89       1.08790      .   S
    C285   C289      1.39222  1_554   S
    C287   C283      1.39727      .   S
    C287   H91       1.08790      .   S
    C287   C291      1.39222  1_554   S
    C282   S386      1.78192      .   S
    C282   C278      1.39939  1_554   S
    C280   S384      1.78192      .   S
    C280   C276      1.39938  1_554   S
    C283   S387      1.78166      .   S
    C283   C279      1.39939  1_554   S
    C281   S385      1.78166      .   S
    C281   C277      1.39939  1_554   S
    C177   H29       1.08742  1_455   S
    C177   C157      1.40009      .   S
    C177   C173      1.39226  1_554   S
    C179   H27       1.08719      .   S
    C179   C159      1.40009      .   S
    C179   C175      1.39226  1_554   S
    C180   H28       1.08728      .   S
    C180   C160      1.40006      .   S
    C180   C176      1.39386  1_554   S
    C178   H30       1.08752  1_455   S
    C178   C158      1.40007      .   S
    C178   C174      1.39386  1_554   S
    C161   C157      1.40199      .   S
    C161   H15       1.09011      .   S
    C163   C159      1.40200      .   S
    C163   H17       1.09011      .   S
    C162   C158      1.40192      .   S
    C162   H16       1.09005      .   S
    C164   C160      1.40193      .   S
    C164   H18       1.09005      .   S
    C159   C155      1.50390      .   S
    C157   C153      1.50325      .   S
    C158   C154      1.50382      .   S
    C160   C156      1.50382      .   S
    S384   O452      1.45717      .   S
    S384   O444      1.47204      .   S
    S384   C292      1.77585      .   S
    S386   O454      1.45718      .   S
    S386   O446      1.47203      .   S
    S386   C294      1.77585      .   S
    S387   O455      1.45718      .   S
    S387   O447      1.47210      .   S
    S387   C295      1.77593      .   S
    S385   O453      1.45718      .   S
    S385   O445      1.47188      .   S
    S385   C293      1.77593      .   S
    H98    C298      1.08797      .   S
    H96    C296      1.08798      .   S
    H99    C299      1.08800      .   S
    H97    C297      1.08723      .   S
    C298   C294      1.40079      .   S
    C298   C302      1.39170      .   S
    C296   C292      1.40079      .   S
    C296   C300      1.39170      .   S
    C297   C293      1.40064      .   S
    C297   C301      1.39219      .   S
    C299   C295      1.40080      .   S
    C299   C303      1.39177      .   S
    C294   C314      1.39849      .   S
    C292   C312      1.39850      .   S
    C295   C315      1.39850      .   S
    C293   C313      1.39850      .   S
    C153   O396      1.26761      .   S
    C153   O392      1.28382      .   S
    C155   O398      1.26743      .   S
    C155   O394      1.28339      .   S
    C154   O397      1.26758      .   S
    C154   O393      1.28309      .   S
    C156   O399      1.26758      .   S
    C156   O395      1.28308      .   S
    C302   H106      1.08946      .   S
    C302   C306      1.40249      .   S
    C300   H104      1.08946      .   S
    C300   C304      1.40251      .   S
    C301   H105      1.08962      .   S
    C301   C305      1.40298      .   S
    C303   H107      1.08948      .   S
    C303   C307      1.40252      .   S
    C314   H114      1.08897      .   S
    C314   C310      1.39562      .   S
    C312   H112      1.08897      .   S
    C312   C308      1.39562      .   S
    C315   H115      1.08896      .   S
    C315   C311      1.39565      .   S
    C313   H113      1.08896      .   S
    C313   C309      1.39457      .   S
    C309   C305      1.40215      .   S
    C309   H111      1.08881      .   S
    C308   C304      1.40199      .   S
    C308   H110      1.08806      .   S
    C310   C306      1.40199      .   S
    C310   H108      1.08827  1_655   S
    C311   C307      1.40192      .   S
    C311   H109      1.08812  1_655   S
    C304   C316      1.51595      .   S
    C306   C318      1.51597      .   S
    C305   C317      1.51604      .   S
    C307   C319      1.51604      .   S
    Ca7    O474      2.31946      .   S
    Ca7    O464      2.32530      .   S
    Ca9    O472      2.31966  1_655   S
    Ca9    O466      2.32530      .   S
    Ca8    O475      2.31989      .   S
    Ca8    O465      2.32355      .   S
    Ca10   O473      2.32011  1_655   S
    Ca10   O467      2.32353      .   S
    C318   O442      1.27098      .   S
    C318   O450      1.26657      .   S
    C316   O440      1.27099      .   S
    C316   O448      1.26658      .   S
    C319   O443      1.27115      .   S
    C319   O451      1.26645      .   S
    C317   O441      1.27116      .   S
    C317   O449      1.26645      .   S
    O440   Ca13      2.32459      .   S
    O442   Ca11      2.32477  1_655   S
    O441   Ca14      2.32432      .   S
    O443   Ca12      2.32449  1_655   S
    O475   C374      1.26594      .   S
    O474   C375      1.26641  1_545   S
    O473   C372      1.26655      .   S
    O472   C373      1.26640  1_545   S
    O448   Ca11      2.31790      .   S
    O450   Ca13      2.31790      .   S
    O449   Ca12      2.31802      .   S
    O451   Ca14      2.31802      .   S
    O464   C373      1.27110  1_545   S
    O466   C375      1.27112  1_545   S
    O465   C372      1.27096      .   S
    O467   C374      1.27069      .   S
    C374   C362      1.51718      .   S
    C375   C363      1.51080      .   S
    C373   C361      1.51083      .   S
    C372   C360      1.51619      .   S
    H148   C367      1.08801      .   S
    H146   C365      1.08802      .   S
    H145   C364      1.08792      .   S
    H147   C366      1.08793      .   S
    C361   C365      1.40316      .   S
    C361   C359      1.40720  1_455   S
    C363   C367      1.40316      .   S
    C363   C357      1.40698      .   S
    C362   C366      1.40199      .   S
    C362   C356      1.40252      .   S
    C360   C364      1.40199      .   S
    C360   C358      1.40274  1_455   S
    C365   C369      1.39582      .   S
    C367   C371      1.39582      .   S
    C364   C368      1.39584      .   S
    C366   C370      1.39582      .   S
    O408   C101      1.28282      .   S
    O410   C103      1.28282      .   S
    O411   C216      1.28307      .   S
    O409   C102      1.28220      .   S
    H151   C370      1.08858      .   S
    H152   C371      1.08900      .   S
    H150   C369      1.08900      .   S
    H149   C368      1.08897      .   S
    H144   C359      1.08966      .   S
    H142   C357      1.08951      .   S
    H141   C356      1.08949      .   S
    H143   C358      1.08950      .   S
    C369   C349      1.39857      .   S
    C371   C351      1.39857      .   S
    C370   C350      1.39846      .   S
    C368   C348      1.39855      .   S
    C357   C353      1.39182      .   S
    C359   C355      1.39182      .   S
    C356   C352      1.39174      .   S
    C358   C354      1.39174      .   S
    O412   C101      1.26778      .   S
    O414   C103      1.26779      .   S
    O413   C102      1.26731      .   S
    O415   C216      1.26768      .   S
    C101   C217      1.50404      .   S
    C103   C219      1.50404      .   S
    C102   C218      1.50501      .   S
    C216   C220      1.50370      .   S
    C350   C352      1.40091      .   S
    C350   S390      1.77637      .   S
    C348   C354      1.40111  1_455   S
    C348   S388      1.77621      .   S
    C351   C353      1.40096      .   S
    C351   S391      1.76469      .   S
    C349   C355      1.40114  1_455   S
    C349   S389      1.76469      .   S
    C355   H140      1.08808      .   S
    C353   H138      1.08809      .   S
    C354   H139      1.08804      .   S
    C352   H137      1.08804      .   S
    O470   S390      1.47210      .   S
    O468   S388      1.47211      .   S
    O471   S391      1.46731      .   S
    O469   S389      1.46731      .   S
    O476   S390      1.45723      .   S
    O478   S388      1.45750  1_655   S
    O479   S389      1.45704  1_655   S
    O477   S391      1.45677      .   S
    S389   C337      1.80147      .   S
    S391   C339      1.80147      .   S
    S388   C336      1.78213      .   S
    S390   C338      1.78213      .   S
    H48    C221      1.09011      .   S
    H50    C223      1.09009      .   S
    H49    C222      1.09005      .   S
    H51    C224      1.09005      .   S
    C217   C223      1.40201      .   S
    C217   C237      1.40013      .   S
    C219   C221      1.40222  1_655   S
    C219   C239      1.40014      .   S
    C218   C224      1.40198      .   S
    C218   C238      1.40014      .   S
    C220   C222      1.40222  1_655   S
    C220   C240      1.40013      .   S
    C221   C225      1.39429      .   S
    C223   C227      1.39429      .   S
    C222   C226      1.39418      .   S
    C224   C228      1.39418      .   S
    H62    C239      1.08724      .   S
    H60    C237      1.08724      .   S
    H61    C238      1.08724      .   S
    H63    C240      1.08724      .   S
    C237   C233      1.39244      .   S
    C239   C235      1.39244      .   S
    C238   C234      1.39255      .   S
    C240   C236      1.39255      .   S
    H126   C342      1.08783      .   S
    H124   C340      1.08783      .   S
    H127   C343      1.08776      .   S
    H125   C341      1.08775      .   S
    C338   C342      1.39732      .   S
    C338   C332      1.39925      .   S
    C336   C340      1.39732      .   S
    C336   C334      1.39943  1_455   S
    C339   C343      1.39727      .   S
    C339   C333      1.39941      .   S
    C337   C341      1.39728      .   S
    C337   C335      1.39960  1_455   S
    C342   C346      1.39271      .   S
    C340   C344      1.39271      .   S
    C341   C345      1.39269      .   S
    C343   C347      1.39269      .   S
    H120   C332      1.08736      .   S
    H122   C334      1.08735      .   S
    H121   C333      1.08749      .   S
    H123   C335      1.08748      .   S
    C227   H54       1.08747      .   S
    C227   C229      1.39943      .   S
    C225   H52       1.08748      .   S
    C225   C231      1.39960  1_455   S
    C228   H55       1.08743      .   S
    C228   C230      1.39941      .   S
    C226   H53       1.08698      .   S
    C226   C232      1.39960  1_455   S
    C334   C330      1.39434      .   S
    C332   C328      1.39434      .   S
    C333   C329      1.39257      .   S
    C335   C331      1.39257      .   S
    C235   C231      1.39733      .   S
    C235   H58       1.08791      .   S
    C233   C229      1.39732      .   S
    C233   H56       1.08791      .   S
    C234   C230      1.39731      .   S
    C234   H57       1.08790      .   S
    C236   C232      1.39730      .   S
    C236   H59       1.08790      .   S
    C229   S380      1.78240      .   S
    C231   S382      1.78240      .   S
    C230   S381      1.78218      .   S
    C232   S383      1.78218      .   S
    C344   H128      1.08718      .   S
    C344   C324      1.39999      .   S
    C346   H130      1.08717      .   S
    C346   C326      1.39998      .   S
    C345   H129      1.08726      .   S
    C345   C325      1.40014      .   S
    C347   H131      1.08726      .   S
    C347   C327      1.40015      .   S
    C328   C326      1.40198      .   S
    C328   H116      1.09023      .   S
    C330   C324      1.40221  1_655   S
    C330   H118      1.09023      .   S
    C329   C327      1.40270      .   S
    C329   H117      1.09110      .   S
    C331   C325      1.40294  1_655   S
    C331   H119      1.09110      .   S
    C324   C320      1.50382      .   S
    C326   C322      1.50382      .   S
    C325   C321      1.50331      .   S
    C327   C323      1.50331      .   S
    S380   O430      1.45719      .   S
    S380   O420      1.47214      .   S
    S380   C241      1.77656      .   S
    S382   O428      1.45744  1_655   S
    S382   O422      1.47214      .   S
    S382   C243      1.77657      .   S
    S383   O429      1.45745  1_655   S
    S383   O423      1.47208      .   S
    S383   C244      1.77622      .   S
    S381   O431      1.45719      .   S
    S381   O421      1.47208      .   S
    S381   C242      1.77622      .   S
    H66    C247      1.08802      .   S
    H64    C245      1.08802      .   S
    H67    C248      1.08808      .   S
    H65    C246      1.08806      .   S
    C245   C243      1.40114  1_455   S
    C245   C249      1.39182      .   S
    C247   C241      1.40095      .   S
    C247   C251      1.39184      .   S
    C246   C244      1.40112  1_455   S
    C246   C250      1.39179      .   S
    C248   C242      1.40094      .   S
    C248   C252      1.39179      .   S
    C243   C263      1.39849      .   S
    C241   C261      1.39850      .   S
    C244   C264      1.39785      .   S
    C242   C262      1.39852      .   S
    C322   O462      1.26765      .   S
    C322   O458      1.28311      .   S
    C320   O460      1.26767      .   S
    C320   O456      1.28311      .   S
    C321   O461      1.26793      .   S
    C321   O457      1.28330      .   S
    C323   O463      1.26792      .   S
    C323   O459      1.28330      .   S
    C251   H70       1.08949      .   S
    C251   C253      1.40162      .   S
    C249   H68       1.08949      .   S
    C249   C255      1.40274  1_455   S
    C250   H69       1.08949      .   S
    C250   C256      1.40178  1_455   S
    C252   H71       1.08950      .   S
    C252   C254      1.40155      .   S
    C264   H79       1.08885      .   S
    C264   C260      1.39671      .   S
    C263   H78       1.08899      .   S
    C263   C259      1.39539      .   S
    C261   H76       1.08897      .   S
    C261   C257      1.39541      .   S
    C262   H77       1.08898      .   S
    C262   C258      1.39587      .   S
    C259   C255      1.40208      .   S
    C259   H74       1.08837      .   S
    C257   C253      1.40184      .   S
    C257   H72       1.08837      .   S
    C260   C256      1.40173      .   S
    C260   H75       1.08790      .   S
    C258   C254      1.40173      .   S
    C258   H73       1.08791      .   S
    C253   C265      1.51770      .   S
    C254   C266      1.51750      .   S
    C256   C268      1.51750      .   S
    C255   C267      1.51654      .   S
    Ca3    O211      2.31823      .   S
    Ca3    O402      2.32425      .   S
    Ca5    O213      2.31822      .   S
    Ca5    O400      2.32445  1_655   S
    Ca4    O212      2.31802      .   S
    Ca4    O403      2.32327      .   S
    Ca6    O214      2.31802      .   S
    Ca6    O401      2.32344  1_655   S
    C267   O419      1.27112  1_545   S
    C267   O427      1.26642  1_545   S
    C265   O417      1.27112  1_545   S
    C265   O425      1.26641  1_545   S
    C266   O416      1.27097      .   S
    C266   O424      1.26651      .   S
    C268   O418      1.27097      .   S
    C268   O426      1.26651      .   S
    O419   Ca2       2.32498      .   S
    O416   Ca32      2.32353      .   S
    O417   Ca0       2.32499      .   S
    O418   Ca1       2.32354      .   S
    O213   C207      1.26612      .   S
    O211   C205      1.26610      .   S
    O214   C100      1.26653      .   S
    O212   C206      1.26654      .   S
    O427   Ca0       2.31944  1_655   S
    O425   Ca2       2.31924      .   S
    O426   Ca32      2.32005  1_655   S
    O424   Ca1       2.31983      .   S
    O403   C100      1.27152      .   S
    O401   C206      1.27152      .   S
    O402   C207      1.27105      .   S
    O400   C205      1.27104      .   S
    C207   C195      1.51648      .   S
    C205   C193      1.51648      .   S
    C100   C196      1.51602      .   S
    C206   C194      1.51602      .   S
    H40    C199      1.08794      .   S
    H42    C197      1.08817  1_655   S
    H41    C200      1.08797      .   S
    H43    C198      1.08818  1_655   S
    C195   C199      1.40190      .   S
    C195   C191      1.40248      .   S
    C193   C197      1.40190      .   S
    C193   C189      1.40248      .   S
    C196   C200      1.40194      .   S
    C196   C192      1.40244      .   S
    C194   C198      1.40194      .   S
    C194   C190      1.40243      .   S
    C197   C201      1.39568      .   S
    C199   C203      1.39566      .   S
    C200   C204      1.39569      .   S
    C198   C202      1.39571      .   S
    O432   C132      1.28312      .   S
    O434   C134      1.28313      .   S
    O433   C133      1.28334      .   S
    O435   C135      1.28333      .   S
    H36    C189      1.08947      .   S
    H38    C191      1.08946      .   S
    H37    C190      1.08948      .   S
    H39    C192      1.08947      .   S
    H44    C201      1.08894      .   S
    H46    C203      1.08896      .   S
    H45    C202      1.08877      .   S
    H47    C204      1.08899      .   S
    C201   C181      1.39846      .   S
    C203   C183      1.39847      .   S
    C202   C182      1.39852      .   S
    C204   C184      1.39853      .   S
    C189   C185      1.39182      .   S
    C191   C187      1.39168      .   S
    C192   C188      1.39167      .   S
    C190   C186      1.39167      .   S
    O436   C132      1.26756      .   S
    O438   C134      1.26755      .   S
    O437   C133      1.26743      .   S
    O439   C135      1.26744      .   S
    C132   C136      1.50377      .   S
    C134   C270      1.50377      .   S
    C133   C269      1.50396      .   S
    C135   C271      1.50395      .   S
    C183   C187      1.40082      .   S
    C183   S378      1.77589      .   S
    C181   C185      1.40080      .   S
    C181   S376      1.77590      .   S
    C182   C186      1.40081      .   S
    C182   S377      1.77587      .   S
    C184   C188      1.40082      .   S
    C184   S379      1.77587      .   S
    C187   H34       1.08812      .   S
    C185   H31       1.08800      .   S
    C188   H35       1.08804      .   S
    C186   H33       1.08804      .   S
    O404   S376      1.47209      .   S
    O209   S378      1.47210      .   S
    O208   S377      1.47204      .   S
    O210   S379      1.47204      .   S
    O406   S378      1.45720      .   S
    O215   S376      1.45719      .   S
    O407   S379      1.45718      .   S
    O405   S377      1.45717      .   S
    S376   C169      1.78163      .   S
    S378   C171      1.78163      .   S
    S379   C172      1.78192      .   S
    S377   C170      1.78192      .   S
    H82    C274      1.09007      .   S
    H80    C272      1.09008      .   S
    H83    C275      1.09011      .   S
    H81    C273      1.09011      .   S
    C136   C272      1.40196      .   S
    C136   C288      1.40000      .   S
    C270   C274      1.40196      .   S
    C270   C290      1.40001      .   S
    C269   C273      1.40204      .   S
    C269   C289      1.40011      .   S
    C271   C275      1.40203      .   S
    C271   C291      1.40011      .   S
    C274   C278      1.39395      .   S
    C272   C276      1.39394      .   S
    C273   C277      1.39406      .   S
    C275   C279      1.39406      .   S
    H92    C290      1.08739  1_455   S
    H94    C288      1.08717      .   S
    H93    C291      1.08742  1_455   S
    H95    C289      1.08719      .   S
    H25    C175      1.08785      .   S
    H23    C173      1.08786      .   S
    H26    C176      1.08690      .   S
    H24    C174      1.08690      .   S
    C169   C173      1.39721      .   S
    C171   C175      1.39723      .   S
    C172   C176      1.39661      .   S
    C170   C174      1.39662      .   S
    O392   Ca7       2.44216      .   S
    O392   Ca11      2.47437      .   S
    O393   Ca8       2.44094      .   S
    O393   Ca12      2.47469      .   S
    O394   Ca9       2.44217      .   S
    O394   Ca13      2.47438      .   S
    O395   Ca10      2.44095      .   S
    O395   Ca14      2.47469      .   S
    O396   Ca9       2.37291  1_455   S
    O397   Ca10      2.37159  1_455   S
    O398   Ca7       2.37275      .   S
    O399   Ca8       2.37142      .   S
    O404   Ca0       2.51376  1_545   S
    O208   Ca32      2.51669      .   S
    O209   Ca2       2.51376  1_545   S
    O210   Ca1       2.51669      .   S
    O408   Ca7       2.47640      .   S
    O408   Ca13      2.43798      .   S
    O409   Ca8       2.47509      .   S
    O409   Ca14      2.43848      .   S
    O410   Ca9       2.47640      .   S
    O410   Ca11      2.43817  1_655   S
    O411   Ca10      2.47508      .   S
    O411   Ca12      2.43867  1_655   S
    O412   Ca11      2.37384      .   S
    O413   Ca12      2.37325      .   S
    O414   Ca13      2.37384      .   S
    O415   Ca14      2.37326      .   S
    O420   Ca3       2.51640      .   S
    O421   Ca4       2.51520      .   S
    O422   Ca5       2.51642      .   S
    O423   Ca6       2.51522      .   S
    O432   Ca32      2.44086      .   S
    O432   Ca3       2.47472      .   S
    O433   Ca0       2.44154      .   S
    O433   Ca4       2.47464      .   S
    O434   Ca1       2.44084      .   S
    O434   Ca5       2.47474      .   S
    O435   Ca2       2.44154      .   S
    O435   Ca6       2.47462      .   S
    O436   Ca1       2.37131      .   S
    O437   Ca2       2.37294      .   S
    O438   Ca32      2.37149  1_655   S
    O439   Ca0       2.37308  1_655   S
    O444   Ca8       2.51613      .   S
    O445   Ca7       2.51432  1_565   S
    O446   Ca10      2.51613      .   S
    O447   Ca9       2.51366  1_565   S
    O456   Ca32      2.47536      .   S
    O456   Ca5       2.43860  1_455   S
    O457   Ca0       2.47602      .   S
    O457   Ca6       2.43804  1_455   S
    O458   Ca1       2.47537      .   S
    O458   Ca3       2.43841      .   S
    O459   Ca2       2.47602      .   S
    O459   Ca4       2.43786      .   S
    O460   Ca3       2.37319      .   S
    O461   Ca4       2.37372      .   S
    O462   Ca5       2.37318      .   S
    O463   Ca6       2.37371      .   S
    O468   Ca11      2.51472      .   S
    O469   Ca12      2.51589      .   S
    O470   Ca13      2.51471      .   S
    O471   Ca14      2.51587      .   S
