# CIF file generated by openbabel 2.4.90, see http://openbabel.sf.net
data_I
_chemical_name_common ''
_cell_length_a 11.307
_cell_length_b 24.27
_cell_length_c 22.852
_cell_angle_alpha 99.337
_cell_angle_beta 89.988
_cell_angle_gamma 90
_space_group_name_H-M_alt 'P 1'
_space_group_name_Hall 'P 1'
loop_
    _symmetry_equiv_pos_as_xyz
    x,y,z
loop_
    _atom_site_label
    _atom_site_type_symbol
    _atom_site_fract_x
    _atom_site_fract_y
    _atom_site_fract_z
    _atom_site_occupancy
    Ca0     Ca   0.13299   0.93241   0.77745   1.000
    Ca1     Ca   0.63279   0.43247   0.77741   1.000
    Ca2     Ca   0.63298   0.93241   0.77745   1.000
    Ca3     Ca   0.38265   0.31706   0.72265   1.000
    Ca4     Ca   0.38243   0.81703   0.72272   1.000
    Ca5     Ca   0.88264   0.31706   0.72265   1.000
    Ca6     Ca   0.88242   0.81703   0.72272   1.000
    Ca7     Ca   0.36705   0.06760   0.22250   1.000
    Ca8     Ca   0.36732   0.56752   0.22258   1.000
    Ca9     Ca   0.86704   0.06760   0.22250   1.000
    Ca10    Ca   0.86731   0.56752   0.22258   1.000
    Ca11    Ca   0.11772   0.18299   0.27728   1.000
    Ca12    Ca   0.11742   0.68291   0.27735   1.000
    Ca13    Ca   0.61771   0.18299   0.27728   1.000
    Ca14    Ca   0.61740   0.68291   0.27735   1.000
    Ca15    Ca   0.13280   0.43247   0.77741   1.000
    C16     C    0.62598   0.74661   0.76556   1.000
    C17     C    0.36419   0.14038   0.34534   1.000
    C18     C    0.36389   0.64032   0.34540   1.000
    C19     C    0.86418   0.14038   0.34534   1.000
    C20     C    0.38619   0.38997   0.84561   1.000
    C21     C    0.38624   0.88996   0.84582   1.000
    C22     C    0.88618   0.38997   0.84561   1.000
    C23     C    0.88623   0.88996   0.84582   1.000
    C24     C    0.11378   0.11004   0.15410   1.000
    C25     C    0.11393   0.61003   0.15438   1.000
    C26     C    0.61377   0.11004   0.15413   1.000
    C27     C    0.61392   0.61003   0.15438   1.000
    C28     C    0.12620   0.24667   0.76550   1.000
    C29     C    0.12599   0.74661   0.76556   1.000
    C30     C    0.62619   0.24667   0.76550   1.000
    O31     O    0.21534   0.27069   0.74748   1.000
    O32     O    0.21515   0.77063   0.74752   1.000
    O33     O    0.71533   0.27069   0.74748   1.000
    O34     O    0.71514   0.77063   0.74752   1.000
    C35     C    0.86388   0.64032   0.34546   1.000
    C36     C    0.37675   0.00286   0.73433   1.000
    C37     C    0.37640   0.50289   0.73433   1.000
    C38     C    0.87674   0.00286   0.73433   1.000
    C39     C    0.87639   0.50289   0.73433   1.000
    C40     C    0.37416   0.25342   0.23445   1.000
    C41     C    0.37384   0.75331   0.23446   1.000
    C42     C    0.87415   0.25342   0.23445   1.000
    C43     C    0.87383   0.75331   0.23446   1.000
    C44     C    0.13618   0.35966   0.65455   1.000
    C45     C    0.13595   0.85962   0.65460   1.000
    C46     C    0.63617   0.35966   0.65455   1.000
    C47     C    0.63594   0.85962   0.65460   1.000
    C48     C    0.12372   0.49711   0.26567   1.000
    C49     C    0.12329   0.99714   0.26565   1.000
    C50     C    0.62371   0.49711   0.26560   1.000
    C51     C    0.62328   0.99714   0.26565   1.000
    O52     O    0.19943   0.11925   0.19127   1.000
    O53     O    0.19962   0.61912   0.19149   1.000
    O54     O    0.69942   0.11926   0.19127   1.000
    O55     O    0.69961   0.61913   0.19149   1.000
    O56     O    0.00587   0.11363   0.16929   1.000
    O57     O    0.00604   0.61373   0.16959   1.000
    O58     O    0.50586   0.11363   0.16929   1.000
    O59     O    0.50603   0.61373   0.16959   1.000
    O60     O    0.01831   0.25824   0.75767   1.000
    O61     O    0.01811   0.75819   0.75760   1.000
    O62     O    0.51830   0.25824   0.75767   1.000
    O63     O    0.51809   0.75819   0.75760   1.000
    O64     O    0.44980   0.13159   0.30815   1.000
    O65     O    0.44959   0.63147   0.30831   1.000
    O66     O    0.94979   0.13159   0.30815   1.000
    O67     O    0.94958   0.63147   0.30831   1.000
    O68     O    0.25626   0.13648   0.33021   1.000
    O69     O    0.25600   0.63647   0.33028   1.000
    O70     O    0.75625   0.13648   0.33021   1.000
    O71     O    0.75599   0.63647   0.33028   1.000
    O72     O    0.26868   0.49109   0.74229   1.000
    O73     O    0.26904   0.99101   0.74229   1.000
    O74     O    0.76867   0.49109   0.74229   1.000
    O75     O    0.76903   0.99101   0.74229   1.000
    O76     O    0.46584   0.47917   0.75249   1.000
    O77     O    0.46622   0.97916   0.75248   1.000
    O78     O    0.96583   0.47917   0.75249   1.000
    O79     O    0.96621   0.97916   0.75248   1.000
    O80     O    0.30047   0.38087   0.80851   1.000
    O81     O    0.30055   0.88077   0.80870   1.000
    O82     O    0.80046   0.38087   0.80851   1.000
    O83     O    0.80054   0.88077   0.80870   1.000
    O84     O    0.49407   0.38627   0.83039   1.000
    O85     O    0.49413   0.88635   0.83063   1.000
    O86     O    0.99406   0.38627   0.83039   1.000
    O87     O    0.99412   0.88635   0.83063   1.000
    O88     O    0.48204   0.24185   0.24230   1.000
    O89     O    0.48172   0.74172   0.24232   1.000
    O90     O    0.98203   0.24185   0.24230   1.000
    O91     O    0.98171   0.74172   0.24232   1.000
    O92     O    0.28497   0.22939   0.25247   1.000
    O93     O    0.28468   0.72930   0.25252   1.000
    O94     O    0.78496   0.22939   0.25247   1.000
    O95     O    0.78467   0.72930   0.25252   1.000
    O96     O    0.05046   0.36852   0.69169   1.000
    O97     O    0.05030   0.86843   0.69180   1.000
    O98     O    0.55045   0.36852   0.69169   1.000
    O99     O    0.55029   0.86843   0.69180   1.000
    O100    O    0.24406   0.36352   0.66974   1.000
    O101    O    0.24386   0.86351   0.66978   1.000
    O102    O    0.74405   0.36352   0.66974   1.000
    O103    O    0.74385   0.86351   0.66978   1.000
    O104    O    0.23099   0.00899   0.25769   1.000
    O105    O    0.23144   0.50891   0.25771   1.000
    O106    O    0.73098   0.00899   0.25769   1.000
    O107    O    0.73143   0.50891   0.25771   1.000
    O108    O    0.03380   0.02084   0.24751   1.000
    O109    O    0.03427   0.52082   0.24751   1.000
    O110    O    0.53379   0.02084   0.24751   1.000
    O111    O    0.53426   0.52082   0.24751   1.000
loop_
    _geom_bond_atom_site_label_1
    _geom_bond_atom_site_label_2
    _geom_bond_distance
    _geom_bond_site_symmetry_2
    _ccdc_geom_bond_type
    C24    O56       1.26761      .   S
    C24    O52       1.28382      .   S
    C26    O58       1.26743      .   S
    C26    O54       1.28339      .   S
    C25    O57       1.26758      .   S
    C25    O53       1.28309      .   S
    C27    O59       1.26758      .   S
    C27    O55       1.28308      .   S
    Ca7    O110      2.31946      .   S
    Ca7    O104      2.32530      .   S
    Ca9    O108      2.31966  1_655   S
    Ca9    O106      2.32530      .   S
    Ca8    O111      2.31989      .   S
    Ca8    O105      2.32355      .   S
    Ca10   O109      2.32011  1_655   S
    Ca10   O107      2.32353      .   S
    C42    O90       1.27098      .   S
    C42    O94       1.26657      .   S
    C40    O88       1.27099      .   S
    C40    O92       1.26658      .   S
    C43    O91       1.27115      .   S
    C43    O95       1.26645      .   S
    C41    O89       1.27116      .   S
    C41    O93       1.26645      .   S
    O88    Ca13      2.32459      .   S
    O90    Ca11      2.32477  1_655   S
    O89    Ca14      2.32432      .   S
    O91    Ca12      2.32449  1_655   S
    O111   C50       1.26594      .   S
    O110   C51       1.26641  1_545   S
    O109   C48       1.26655      .   S
    O108   C49       1.26640  1_545   S
    O92    Ca11      2.31790      .   S
    O94    Ca13      2.31790      .   S
    O93    Ca12      2.31802      .   S
    O95    Ca14      2.31802      .   S
    O104   C49       1.27110  1_545   S
    O106   C51       1.27112  1_545   S
    O105   C48       1.27096      .   S
    O107   C50       1.27069      .   S
    O64    C17       1.28282      .   S
    O66    C19       1.28282      .   S
    O67    C35       1.28307      .   S
    O65    C18       1.28220      .   S
    O68    C17       1.26778      .   S
    O70    C19       1.26779      .   S
    O69    C18       1.26731      .   S
    O71    C35       1.26768      .   S
    C46    O102      1.26765      .   S
    C46    O98       1.28311      .   S
    C44    O100      1.26767      .   S
    C44    O96       1.28311      .   S
    C45    O101      1.26793      .   S
    C45    O97       1.28330      .   S
    C47    O103      1.26792      .   S
    C47    O99       1.28330      .   S
    Ca3    O31       2.31823      .   S
    Ca3    O62       2.32425      .   S
    Ca5    O33       2.31822      .   S
    Ca5    O60       2.32445  1_655   S
    Ca4    O32       2.31802      .   S
    Ca4    O63       2.32327      .   S
    Ca6    O34       2.31802      .   S
    Ca6    O61       2.32344  1_655   S
    C38    O75       1.27112  1_545   S
    C38    O79       1.26642  1_545   S
    C36    O73       1.27112  1_545   S
    C36    O77       1.26641  1_545   S
    C37    O72       1.27097      .   S
    C37    O76       1.26651      .   S
    C39    O74       1.27097      .   S
    C39    O78       1.26651      .   S
    O75    Ca2       2.32498      .   S
    O72    Ca15      2.32353      .   S
    O73    Ca0       2.32499      .   S
    O74    Ca1       2.32354      .   S
    O33    C30       1.26612      .   S
    O31    C28       1.26610      .   S
    O34    C16       1.26653      .   S
    O32    C29       1.26654      .   S
    O79    Ca0       2.31944  1_655   S
    O77    Ca2       2.31924      .   S
    O78    Ca15      2.32005  1_655   S
    O76    Ca1       2.31983      .   S
    O63    C16       1.27152      .   S
    O61    C29       1.27152      .   S
    O62    C30       1.27105      .   S
    O60    C28       1.27104      .   S
    O80    C20       1.28312      .   S
    O82    C22       1.28313      .   S
    O81    C21       1.28334      .   S
    O83    C23       1.28333      .   S
    O84    C20       1.26756      .   S
    O86    C22       1.26755      .   S
    O85    C21       1.26743      .   S
    O87    C23       1.26744      .   S
    O52    Ca7       2.44216      .   S
    O52    Ca11      2.47437      .   S
    O53    Ca8       2.44094      .   S
    O53    Ca12      2.47469      .   S
    O54    Ca9       2.44217      .   S
    O54    Ca13      2.47438      .   S
    O55    Ca10      2.44095      .   S
    O55    Ca14      2.47469      .   S
    O56    Ca9       2.37291  1_455   S
    O57    Ca10      2.37159  1_455   S
    O58    Ca7       2.37275      .   S
    O59    Ca8       2.37142      .   S
    O64    Ca7       2.47640      .   S
    O64    Ca13      2.43798      .   S
    O65    Ca8       2.47509      .   S
    O65    Ca14      2.43848      .   S
    O66    Ca9       2.47640      .   S
    O66    Ca11      2.43817  1_655   S
    O67    Ca10      2.47508      .   S
    O67    Ca12      2.43867  1_655   S
    O68    Ca11      2.37384      .   S
    O69    Ca12      2.37325      .   S
    O70    Ca13      2.37384      .   S
    O71    Ca14      2.37326      .   S
    O80    Ca15      2.44086      .   S
    O80    Ca3       2.47472      .   S
    O81    Ca0       2.44154      .   S
    O81    Ca4       2.47464      .   S
    O82    Ca1       2.44084      .   S
    O82    Ca5       2.47474      .   S
    O83    Ca2       2.44154      .   S
    O83    Ca6       2.47462      .   S
    O84    Ca1       2.37131      .   S
    O85    Ca2       2.37294      .   S
    O86    Ca15      2.37149  1_655   S
    O87    Ca0       2.37308  1_655   S
    O96    Ca15      2.47536      .   S
    O96    Ca5       2.43860  1_455   S
    O97    Ca0       2.47602      .   S
    O97    Ca6       2.43804  1_455   S
    O98    Ca1       2.47537      .   S
    O98    Ca3       2.43841      .   S
    O99    Ca2       2.47602      .   S
    O99    Ca4       2.43786      .   S
    O100   Ca3       2.37319      .   S
    O101   Ca4       2.37372      .   S
    O102   Ca5       2.37318      .   S
    O103   Ca6       2.37371      .   S
