# CIF file generated by openbabel 2.4.90, see http://openbabel.sf.net
data_I
_chemical_name_common ''
_cell_length_a 11.307
_cell_length_b 24.27
_cell_length_c 22.852
_cell_angle_alpha 99.337
_cell_angle_beta 89.988
_cell_angle_gamma 90
_space_group_name_H-M_alt 'P 1'
_space_group_name_Hall 'P 1'
loop_
    _symmetry_equiv_pos_as_xyz
    x,y,z
loop_
    _atom_site_label
    _atom_site_type_symbol
    _atom_site_fract_x
    _atom_site_fract_y
    _atom_site_fract_z
    _atom_site_occupancy
    Zr0     Zr   0.13280   0.43247   0.77741   1.000
    Zr1     Zr   0.13299   0.93241   0.77745   1.000
    Zr2     Zr   0.63279   0.43247   0.77741   1.000
    Zr3     Zr   0.63298   0.93241   0.77745   1.000
    Zr4     Zr   0.38265   0.31706   0.72265   1.000
    Zr5     Zr   0.38243   0.81703   0.72272   1.000
    Zr6     Zr   0.88264   0.31706   0.72265   1.000
    Zr7     Zr   0.88242   0.81703   0.72272   1.000
    Zr8     Zr   0.36705   0.06760   0.22250   1.000
    Zr9     Zr   0.36732   0.56752   0.22258   1.000
    Zr10    Zr   0.86704   0.06760   0.22250   1.000
    Zr11    Zr   0.86731   0.56752   0.22258   1.000
    Zr12    Zr   0.11772   0.18299   0.27728   1.000
    Zr13    Zr   0.11742   0.68291   0.27735   1.000
    Zr14    Zr   0.61771   0.18299   0.27728   1.000
    Zr15    Zr   0.61740   0.68291   0.27735   1.000
    N16     N    0.18210   0.10778   0.92256   1.000
    O17     O    0.16299   0.03811   0.87293   1.000
    N18     N    0.68209   0.10778   0.92256   1.000
    O19     O    0.66298   0.03811   0.87292   1.000
    N20     N    0.68179   0.60779   0.92271   1.000
    O21     O    0.66269   0.53812   0.87305   1.000
    N22     N    0.93154   0.64196   0.57709   1.000
    O23     O    0.91233   0.71153   0.62691   1.000
    N24     N    0.43184   0.14196   0.57703   1.000
    O25     O    0.41259   0.21153   0.62685   1.000
    N26     N    0.18180   0.60779   0.92271   1.000
    O27     O    0.16270   0.53812   0.87304   1.000
    N28     N    0.43154   0.64196   0.57709   1.000
    O29     O    0.41233   0.71153   0.62692   1.000
    N30     N    0.81798   0.89219   0.07741   1.000
    O31     O    0.83707   0.96188   0.12704   1.000
    N32     N    0.81835   0.39222   0.07728   1.000
    O33     O    0.83742   0.46189   0.12695   1.000
    N34     N    0.31799   0.89219   0.07740   1.000
    O35     O    0.33708   0.96188   0.12703   1.000
    N36     N    0.56860   0.35803   0.42290   1.000
    O37     O    0.58781   0.28847   0.37308   1.000
    N38     N    0.31836   0.39222   0.07728   1.000
    O39     O    0.33743   0.46189   0.12695   1.000
    N40     N    0.06860   0.35803   0.42291   1.000
    O41     O    0.08782   0.28847   0.37308   1.000
    N42     N    0.06827   0.85803   0.42288   1.000
    O43     O    0.08751   0.78846   0.37310   1.000
    N44     N    0.56827   0.85803   0.42288   1.000
    O45     O    0.58750   0.78846   0.37310   1.000
    N46     N    0.93184   0.14196   0.57704   1.000
    O47     O    0.91259   0.21153   0.62685   1.000
    C48     C    0.62980   0.50894   0.25694   1.000
    O49     O    0.71459   0.52358   0.24854   1.000
    O50     O    0.61003   0.46229   0.30482   1.000
    O51     O    0.54030   0.52656   0.24599   1.000
    C52     C    0.85648   0.63608   0.32802   1.000
    O53     O    0.94499   0.64664   0.31042   1.000
    O54     O    0.88246   0.61779   0.29673   1.000
    O55     O    0.88076   0.64023   0.40276   1.000
    O56     O    0.77159   0.64789   0.31592   1.000
    C57     C    0.35649   0.63608   0.32800   1.000
    O58     O    0.27160   0.64789   0.31591   1.000
    O59     O    0.38077   0.64023   0.40275   1.000
    O60     O    0.38247   0.61779   0.29672   1.000
    O61     O    0.44499   0.64664   0.31041   1.000
    C62     C    0.12981   0.50894   0.25696   1.000
    O63     O    0.11004   0.46229   0.30485   1.000
    O64     O    0.04030   0.52656   0.24600   1.000
    O65     O    0.21460   0.52358   0.24855   1.000
    C66     C    0.10653   0.61429   0.17182   1.000
    O67     O    0.19500   0.60381   0.18943   1.000
    O68     O    0.13253   0.63266   0.20312   1.000
    O69     O    0.02160   0.60246   0.18395   1.000
    O70     O    0.13087   0.60998   0.09706   1.000
    C71     C    0.60652   0.61429   0.17182   1.000
    O72     O    0.52160   0.60246   0.18395   1.000
    O73     O    0.63086   0.60998   0.09706   1.000
    O74     O    0.69499   0.60381   0.18943   1.000
    O75     O    0.63251   0.63266   0.20312   1.000
    C76     C    0.38008   0.74144   0.24310   1.000
    O77     O    0.29056   0.72377   0.25402   1.000
    O78     O    0.35998   0.78807   0.19532   1.000
    O79     O    0.46482   0.72688   0.25147   1.000
    C80     C    0.88007   0.74144   0.24310   1.000
    O81     O    0.96482   0.72688   0.25147   1.000
    O82     O    0.79055   0.72377   0.25402   1.000
    O83     O    0.85997   0.78807   0.19532   1.000
    C84     C    0.37067   0.99101   0.74303   1.000
    O85     O    0.28584   0.97636   0.75145   1.000
    O86     O    0.46013   0.97340   0.75400   1.000
    O87     O    0.39043   0.03768   0.69513   1.000
    C88     C    0.39364   0.88570   0.82838   1.000
    O89     O    0.30521   0.89614   0.81073   1.000
    O90     O    0.36757   0.86730   0.79705   1.000
    O91     O    0.36919   0.89002   0.90312   1.000
    O92     O    0.47860   0.89754   0.81621   1.000
    C93     C    0.61974   0.75848   0.75689   1.000
    O94     O    0.63982   0.71186   0.80471   1.000
    O95     O    0.70926   0.77615   0.74601   1.000
    O96     O    0.53500   0.77304   0.74853   1.000
    C97     C    0.11975   0.75848   0.75689   1.000
    O98     O    0.03501   0.77304   0.74853   1.000
    O99     O    0.13983   0.71186   0.80471   1.000
    O100    O    0.20927   0.77615   0.74601   1.000
    C101    C    0.89363   0.88570   0.82838   1.000
    O102    O    0.97859   0.89754   0.81621   1.000
    O103    O    0.80520   0.89614   0.81073   1.000
    O104    O    0.86756   0.86730   0.79705   1.000
    O105    O    0.86918   0.89002   0.90312   1.000
    C106    C    0.14337   0.86385   0.67206   1.000
    O107    O    0.11751   0.88213   0.70334   1.000
    O108    O    0.05486   0.85329   0.68966   1.000
    O109    O    0.11907   0.85973   0.59728   1.000
    O110    O    0.22826   0.85206   0.68415   1.000
    C111    C    0.64336   0.86385   0.67206   1.000
    O112    O    0.61749   0.88213   0.70334   1.000
    O113    O    0.55486   0.85329   0.68966   1.000
    O114    O    0.61906   0.85973   0.59728   1.000
    O115    O    0.72825   0.85206   0.68415   1.000
    C116    C    0.87066   0.99101   0.74303   1.000
    O117    O    0.78583   0.97636   0.75145   1.000
    O118    O    0.96013   0.97340   0.75400   1.000
    O119    O    0.89042   0.03768   0.69514   1.000
    C120    C    0.37031   0.49105   0.74304   1.000
    O121    O    0.28552   0.47642   0.75144   1.000
    O122    O    0.45981   0.47344   0.75399   1.000
    O123    O    0.39009   0.53771   0.69514   1.000
    C124    C    0.11995   0.25853   0.75688   1.000
    O125    O    0.20947   0.27621   0.74597   1.000
    O126    O    0.14007   0.21190   0.80466   1.000
    O127    O    0.03521   0.27309   0.74852   1.000
    C128    C    0.39358   0.38570   0.82817   1.000
    O129    O    0.30511   0.39619   0.81056   1.000
    O130    O    0.36757   0.36733   0.79687   1.000
    O131    O    0.47850   0.39754   0.81603   1.000
    O132    O    0.36925   0.39003   0.90293   1.000
    C133    C    0.89356   0.38570   0.82817   1.000
    O134    O    0.86924   0.39003   0.90293   1.000
    O135    O    0.80509   0.39619   0.81056   1.000
    O136    O    0.86756   0.36733   0.79687   1.000
    O137    O    0.97850   0.39754   0.81603   1.000
    C138    C    0.64356   0.36390   0.67199   1.000
    O139    O    0.61759   0.38220   0.70327   1.000
    O140    O    0.55505   0.35335   0.68958   1.000
    O141    O    0.61931   0.35976   0.59724   1.000
    O142    O    0.72845   0.35210   0.68409   1.000
    C143    C    0.14357   0.36390   0.67199   1.000
    O144    O    0.11760   0.38220   0.70327   1.000
    O145    O    0.05506   0.35335   0.68958   1.000
    O146    O    0.22846   0.35210   0.68409   1.000
    O147    O    0.11932   0.35976   0.59724   1.000
    C148    C    0.61994   0.25854   0.75688   1.000
    O149    O    0.64006   0.21190   0.80466   1.000
    O150    O    0.53521   0.27309   0.74852   1.000
    O151    O    0.70946   0.27621   0.74597   1.000
    C152    C    0.87030   0.49105   0.74304   1.000
    O153    O    0.78551   0.47642   0.75144   1.000
    O154    O    0.89008   0.53771   0.69514   1.000
    O155    O    0.95981   0.47344   0.75399   1.000
    C156    C    0.12936   0.00899   0.25695   1.000
    O157    O    0.03989   0.02660   0.24598   1.000
    O158    O    0.10963   0.96232   0.30478   1.000
    O159    O    0.21419   0.02364   0.24852   1.000
    C160    C    0.62935   0.00899   0.25695   1.000
    O161    O    0.53989   0.02660   0.24598   1.000
    O162    O    0.60962   0.96232   0.30478   1.000
    O163    O    0.71418   0.02364   0.24852   1.000
    C164    C    0.60635   0.11431   0.17156   1.000
    O165    O    0.69479   0.10387   0.18922   1.000
    O166    O    0.63246   0.13272   0.20292   1.000
    O167    O    0.52140   0.10246   0.18373   1.000
    O168    O    0.63084   0.10998   0.09684   1.000
    C169    C    0.85674   0.13615   0.32790   1.000
    O170    O    0.77186   0.14794   0.31582   1.000
    O171    O    0.88105   0.14027   0.40267   1.000
    O172    O    0.88258   0.11787   0.29661   1.000
    O173    O    0.94525   0.14672   0.31031   1.000
    C174    C    0.35675   0.13615   0.32790   1.000
    O175    O    0.27187   0.14794   0.31582   1.000
    O176    O    0.38106   0.14027   0.40266   1.000
    O177    O    0.38259   0.11787   0.29661   1.000
    O178    O    0.44525   0.14672   0.31031   1.000
    C179    C    0.88038   0.24155   0.24307   1.000
    O180    O    0.86031   0.28816   0.19527   1.000
    O181    O    0.96513   0.22699   0.25143   1.000
    O182    O    0.79086   0.22387   0.25397   1.000
    C183    C    0.10636   0.11431   0.17155   1.000
    O184    O    0.13247   0.13272   0.20291   1.000
    O185    O    0.19480   0.10387   0.18922   1.000
    O186    O    0.02141   0.10246   0.18372   1.000
    O187    O    0.13085   0.10998   0.09683   1.000
    C188    C    0.38039   0.24155   0.24307   1.000
    O189    O    0.29087   0.22387   0.25397   1.000
    O190    O    0.36032   0.28816   0.19527   1.000
    O191    O    0.46513   0.22699   0.25143   1.000
loop_
    _geom_bond_atom_site_label_1
    _geom_bond_atom_site_label_2
    _geom_bond_distance
    _geom_bond_site_symmetry_2
    _ccdc_geom_bond_type
    N16    O17       1.88962      .   S
    Zr1    O17       3.10492  1_565   S
    N18    O19       1.88962      .   S
    Zr3    O19       3.10492  1_565   S
    N20    O21       1.88979      .   S
    Zr2    O21       3.10603      .   S
    N22    O23       1.88965      .   S
    Zr7    O23       3.10551      .   S
    N24    O25       1.88964      .   S
    Zr4    O25       3.10614      .   S
    N26    O27       1.88977      .   S
    Zr0    O27       3.10600      .   S
    N28    O29       1.88961      .   S
    Zr5    O29       3.10546      .   S
    N30    O31       1.88969      .   S
    Zr10   O31       3.10497  1_545   S
    N32    O33       1.88973      .   S
    Zr11   O33       3.10567      .   S
    N34    O35       1.88964      .   S
    Zr8    O35       3.10517  1_545   S
    N36    O37       1.88941      .   S
    Zr14   O37       3.10500      .   S
    N38    O39       1.88973      .   S
    Zr9    O39       3.10567      .   S
    N40    O41       1.88946      .   S
    Zr12   O41       3.10507      .   S
    N42    O43       1.88931      .   S
    Zr13   O43       3.10554      .   S
    N44    O45       1.88931      .   S
    Zr15   O45       3.10553      .   S
    N46    O47       1.88964      .   S
    Zr6    O47       3.10613      .   S
    C48    O49       1.05074      .   S
    Zr11   O49       2.16248      .   S
    C48    O50       1.71215      .   S
    N36    O50       4.01470      .   S
    C48    O51       1.14207      .   S
    Zr9    O51       2.29625      .   S
    C52    O53       1.12338      .   S
    Zr13   O53       2.31575  1_455   S
    C52    O54       0.83158      .   S
    Zr11   O54       1.92832      .   S
    C52    O55       1.71689      .   S
    N22    O55       4.01833      .   S
    C52    O56       1.05153      .   S
    Zr15   O56       2.18687      .   S
    C57    O58       1.05146      .   S
    Zr13   O58       2.18676      .   S
    C57    O59       1.71697      .   S
    N28    O59       4.01879      .   S
    C57    O60       0.83140      .   S
    Zr9    O60       1.92814      .   S
    C57    O61       1.12323      .   S
    Zr15   O61       2.31550      .   S
    C62    O63       1.71213      .   S
    N40    O63       4.01446      .   S
    C62    O64       1.14220      .   S
    Zr11   O64       2.29650  1_655   S
    C62    O65       1.05081      .   S
    Zr9    O65       2.16259      .   S
    C66    O67       1.12283      .   S
    Zr9    O67       2.31585      .   S
    C66    O68       0.83262      .   S
    Zr13   O68       1.92947      .   S
    C66    O69       1.05225      .   S
    Zr11   O69       2.18724  1_655   S
    C66    O70       1.71667      .   S
    N26    O70       4.01746  1_556   S
    C71    O72       1.05219      .   S
    Zr9    O72       2.18709      .   S
    C71    O73       1.71665      .   S
    N20    O73       4.01739  1_556   S
    C71    O74       1.12283      .   S
    Zr11   O74       2.31584      .   S
    C71    O75       0.83262      .   S
    Zr15   O75       1.92948      .   S
    C76    O77       1.14244      .   S
    Zr13   O77       2.29605      .   S
    C76    O78       1.71046      .   S
    N34    O78       4.01027      .   S
    C76    O79       1.04957      .   S
    Zr15   O79       2.16104      .   S
    C80    O81       1.04963      .   S
    Zr13   O81       2.16120  1_455   S
    C80    O82       1.14244      .   S
    Zr15   O82       2.29605      .   S
    C80    O83       1.71042      .   S
    N30    O83       4.01013      .   S
    C84    O85       1.05143      .   S
    Zr1    O85       2.16407      .   S
    C84    O86       1.14179      .   S
    Zr3    O86       2.29558      .   S
    C84    O87       1.71274  1_565   S
    N24    O87       4.01536      .   S
    C88    O89       1.12263      .   S
    Zr1    O89       2.31574      .   S
    C88    O90       0.83393      .   S
    Zr5    O90       1.93110      .   S
    C88    O91       1.71630      .   S
    N34    O91       4.01643  1_554   S
    C88    O92       1.05287      .   S
    Zr3    O92       2.18868      .   S
    C93    O94       1.71078      .   S
    N20    O94       4.01081      .   S
    C93    O95       1.14239      .   S
    Zr7    O95       2.29601      .   S
    C93    O96       1.04955      .   S
    Zr5    O96       2.16059      .   S
    C97    O98       1.04961      .   S
    Zr7    O98       2.16075  1_655   S
    C97    O99       1.71077      .   S
    N26    O99       4.01075      .   S
    C97    O100      1.14239      .   S
    Zr5    O100      2.29601      .   S
    C101   O102      1.05293      .   S
    Zr1    O102      2.18882  1_455   S
    C101   O103      1.12263      .   S
    Zr3    O103      2.31575      .   S
    C101   O104      0.83393      .   S
    Zr7    O104      1.93109      .   S
    C101   O105      1.71636      .   S
    N30    O105      4.01659  1_554   S
    C106   O107      0.83093      .   S
    Zr1    O107      1.92793      .   S
    C106   O108      1.12347      .   S
    Zr7    O108      2.31564  1_655   S
    C106   O109      1.71766      .   S
    N42    O109      4.02043      .   S
    C106   O110      1.05135      .   S
    Zr5    O110      2.18681      .   S
    C111   O112      0.83092      .   S
    Zr3    O112      1.92793      .   S
    C111   O113      1.12341      .   S
    Zr5    O113      2.31548      .   S
    C111   O114      1.71765      .   S
    N44    O114      4.02039      .   S
    C111   O115      1.05135      .   S
    Zr7    O115      2.18680      .   S
    C116   O117      1.05143      .   S
    Zr3    O117      2.16407      .   S
    C116   O118      1.14185      .   S
    Zr1    O118      2.29575  1_455   S
    C116   O119      1.71256  1_565   S
    N46    O119      4.01551      .   S
    C120   O121      1.05078      .   S
    Zr0    O121      2.16254      .   S
    C120   O122      1.14212      .   S
    Zr2    O122      2.29629      .   S
    C120   O123      1.71233      .   S
    N28    O123      4.01425      .   S
    C124   O125      1.14249      .   S
    Zr4    O125      2.29623      .   S
    C124   O126      1.71037      .   S
    N16    O126      4.01010      .   S
    C124   O127      1.04946      .   S
    Zr6    O127      2.16094  1_655   S
    C128   O129      1.12278      .   S
    Zr0    O129      2.31574      .   S
    C128   O130      0.83264      .   S
    Zr4    O130      1.92951      .   S
    C128   O131      1.05225      .   S
    Zr2    O131      2.18712      .   S
    C128   O132      1.71658      .   S
    N38    O132      4.01725  1_554   S
    C133   O134      1.71658      .   S
    N32    O134      4.01724  1_554   S
    C133   O135      1.12279      .   S
    Zr2    O135      2.31574      .   S
    C133   O136      0.83264      .   S
    Zr6    O136      1.92952      .   S
    C133   O137      1.05230      .   S
    Zr0    O137      2.18728  1_455   S
    C138   O139      0.83141      .   S
    Zr2    O139      1.92823      .   S
    C138   O140      1.12331      .   S
    Zr4    O140      2.31554      .   S
    C138   O141      1.71699      .   S
    N36    O141      4.01859      .   S
    C138   O142      1.05155      .   S
    Zr6    O142      2.18687      .   S
    C143   O144      0.83141      .   S
    Zr0    O144      1.92823      .   S
    C143   O145      1.12337      .   S
    Zr6    O145      2.31570  1_655   S
    C143   O146      1.05156      .   S
    Zr4    O146      2.18688      .   S
    C143   O147      1.71695      .   S
    N40    O147      4.01846      .   S
    C148   O149      1.71038      .   S
    N18    O149      4.01010      .   S
    C148   O150      1.04940      .   S
    Zr4    O150      2.16078      .   S
    C148   O151      1.14249      .   S
    Zr6    O151      2.29623      .   S
    C152   O153      1.05078      .   S
    Zr2    O153      2.16255      .   S
    C152   O154      1.71235      .   S
    N22    O154      4.01433      .   S
    C152   O155      1.14218      .   S
    Zr0    O155      2.29646  1_455   S
    C156   O157      1.14187      .   S
    Zr10   O157      2.29586  1_655   S
    C156   O158      1.71141  1_545   S
    N42    O158      4.01548      .   S
    C156   O159      1.05153      .   S
    Zr8    O159      2.16434      .   S
    C160   O161      1.14181      .   S
    Zr8    O161      2.29571      .   S
    C160   O162      1.71142  1_545   S
    N44    O162      4.01549      .   S
    C160   O163      1.05153      .   S
    Zr10   O163      2.16434      .   S
    C164   O165      1.12270      .   S
    Zr10   O165      2.31608      .   S
    C164   O166      0.83450      .   S
    Zr14   O166      1.93170      .   S
    C164   O167      1.05278      .   S
    Zr8    O167      2.18847      .   S
    C164   O168      1.71620      .   S
    N18    O168      4.01620  1_556   S
    C169   O170      1.05118      .   S
    Zr14   O170      2.18661      .   S
    C169   O171      1.71738      .   S
    N46    O171      4.01964      .   S
    C169   O172      0.83088      .   S
    Zr10   O172      1.92809      .   S
    C169   O173      1.12348      .   S
    Zr12   O173      2.31573  1_455   S
    C174   O175      1.05117      .   S
    Zr12   O175      2.18660      .   S
    C174   O176      1.71736      .   S
    N24    O176      4.01957      .   S
    C174   O177      0.83088      .   S
    Zr8    O177      1.92809      .   S
    C174   O178      1.12342      .   S
    Zr14   O178      2.31558      .   S
    C179   O180      1.71041      .   S
    N32    O180      4.01051      .   S
    C179   O181      1.04960      .   S
    Zr12   O181      2.16124  1_455   S
    C179   O182      1.14253      .   S
    Zr14   O182      2.29609      .   S
    C183   O184      0.83459      .   S
    Zr12   O184      1.93178      .   S
    C183   O185      1.12275      .   S
    Zr8    O185      2.31613      .   S
    C183   O186      1.05287      .   S
    Zr10   O186      2.18866  1_655   S
    C183   O187      1.71617      .   S
    N16    O187      4.01600  1_556   S
    C188   O189      1.14253      .   S
    Zr12   O189      2.29609      .   S
    C188   O190      1.71041      .   S
    N38    O190      4.01051      .   S
    C188   O191      1.04954      .   S
    Zr14   O191      2.16108      .   S
