# CIF file generated by openbabel 2.4.90, see http://openbabel.sf.net
data_I
_chemical_name_common ''
_cell_length_a 11.307
_cell_length_b 24.27
_cell_length_c 22.852
_cell_angle_alpha 99.337
_cell_angle_beta 89.988
_cell_angle_gamma 90
_space_group_name_H-M_alt 'P 1'
_space_group_name_Hall 'P 1'
loop_
    _symmetry_equiv_pos_as_xyz
    x,y,z
loop_
    _atom_site_label
    _atom_site_type_symbol
    _atom_site_fract_x
    _atom_site_fract_y
    _atom_site_fract_z
    _atom_site_occupancy
    C0      C    0.13280   0.43247   0.77741   1.000
    C1      C    0.13299   0.93241   0.77745   1.000
    C2      C    0.63279   0.43247   0.77741   1.000
    C3      C    0.63298   0.93241   0.77745   1.000
    C4      C    0.38265   0.31706   0.72265   1.000
    C5      C    0.38243   0.81703   0.72272   1.000
    C6      C    0.88264   0.31706   0.72265   1.000
    C7      C    0.88242   0.81703   0.72272   1.000
    C8      C    0.36705   0.06760   0.22250   1.000
    C9      C    0.36732   0.56752   0.22258   1.000
    C10     C    0.86704   0.06760   0.22250   1.000
    C11     C    0.86731   0.56752   0.22258   1.000
    C12     C    0.11772   0.18299   0.27728   1.000
    C13     C    0.11742   0.68291   0.27735   1.000
    C14     C    0.61771   0.18299   0.27728   1.000
    C15     C    0.61740   0.68291   0.27735   1.000
    C16     C    0.31926   0.13184   0.09917   1.000
    C17     C    0.31923   0.63189   0.09930   1.000
    C18     C    0.81925   0.13184   0.09917   1.000
    C19     C    0.81922   0.63188   0.09930   1.000
    C20     C    0.36544   0.10953   0.99118   1.000
    C21     C    0.36515   0.60958   0.99129   1.000
    C22     C    0.86543   0.10953   0.99118   1.000
    C23     C    0.86514   0.60958   0.99129   1.000
    C24     C    0.01914   0.03692   0.95781   1.000
    C25     C    0.01875   0.53700   0.95812   1.000
    C26     C    0.51913   0.03692   0.95781   1.000
    C27     C    0.51874   0.53700   0.95812   1.000
    C28     C    0.47403   0.05972   0.06632   1.000
    C29     C    0.47394   0.55979   0.06666   1.000
    C30     C    0.97402   0.05972   0.06632   1.000
    C31     C    0.97392   0.55979   0.06666   1.000
    C32     C    0.36626   0.14874   0.88062   1.000
    C33     C    0.36584   0.64870   0.88074   1.000
    C34     C    0.86625   0.14874   0.88062   1.000
    C35     C    0.86583   0.64870   0.88074   1.000
    C36     C    0.32485   0.22805   0.82679   1.000
    C37     C    0.32458   0.72797   0.82683   1.000
    C38     C    0.82485   0.22805   0.82679   1.000
    C39     C    0.82457   0.72797   0.82683   1.000
    C40     C    0.48328   0.15888   0.77618   1.000
    C41     C    0.48296   0.65885   0.77622   1.000
    C42     C    0.98327   0.15888   0.77618   1.000
    C43     C    0.98295   0.65885   0.77622   1.000
    C44     C    0.02612   0.07697   0.82685   1.000
    C45     C    0.02564   0.57698   0.82690   1.000
    C46     C    0.52611   0.07697   0.82685   1.000
    C47     C    0.52563   0.57698   0.82699   1.000
    C48     C    0.06965   0.11850   0.40039   1.000
    C49     C    0.06925   0.61843   0.40050   1.000
    C50     C    0.56964   0.11850   0.40039   1.000
    C51     C    0.56924   0.61843   0.40050   1.000
    C52     C    0.11526   0.14045   0.50845   1.000
    C53     C    0.11492   0.64044   0.50850   1.000
    C54     C    0.61525   0.14045   0.50845   1.000
    C55     C    0.61491   0.64044   0.50855   1.000
    C56     C    0.26864   0.21280   0.54173   1.000
    C57     C    0.26833   0.71283   0.54183   1.000
    C58     C    0.76863   0.21280   0.54173   1.000
    C59     C    0.76833   0.71283   0.54183   1.000
    C60     C    0.22412   0.19035   0.43315   1.000
    C61     C    0.22377   0.69034   0.43325   1.000
    C62     C    0.72411   0.19036   0.43315   1.000
    C63     C    0.72377   0.69034   0.43325   1.000
    C64     C    0.11580   0.10087   0.61884   1.000
    C65     C    0.11551   0.60088   0.61885   1.000
    C66     C    0.61579   0.10087   0.61884   1.000
    C67     C    0.61550   0.60088   0.61885   1.000
    C68     C    0.07489   0.02157   0.67274   1.000
    C69     C    0.07454   0.52156   0.67272   1.000
    C70     C    0.57488   0.02157   0.67274   1.000
    C71     C    0.57453   0.52156   0.67272   1.000
    C72     C    0.23311   0.09044   0.72352   1.000
    C73     C    0.23280   0.59046   0.72352   1.000
    C74     C    0.73310   0.09044   0.72352   1.000
    C75     C    0.73279   0.59046   0.72352   1.000
    C76     C    0.27543   0.17235   0.67279   1.000
    C77     C    0.27518   0.67239   0.67282   1.000
    C78     C    0.77542   0.17235   0.67279   1.000
    C79     C    0.77517   0.67240   0.67282   1.000
    C80     C    0.18092   0.36812   0.90070   1.000
    C81     C    0.18082   0.86814   0.90080   1.000
    C82     C    0.68091   0.36812   0.90070   1.000
    C83     C    0.68081   0.86814   0.90080   1.000
    C84     C    0.13500   0.39044   0.00871   1.000
    C85     C    0.13466   0.89045   0.00879   1.000
    C86     C    0.63500   0.39044   0.00871   1.000
    C87     C    0.63465   0.89044   0.00879   1.000
    C88     C    0.48141   0.46302   0.04186   1.000
    C89     C    0.48098   0.96305   0.04215   1.000
    C90     C    0.98140   0.46302   0.04186   1.000
    C91     C    0.98097   0.96305   0.04215   1.000
    C92     C    0.02621   0.44023   0.93333   1.000
    C93     C    0.02606   0.94025   0.93364   1.000
    C94     C    0.52620   0.44023   0.93333   1.000
    C95     C    0.52605   0.94025   0.93364   1.000
    C96     C    0.13436   0.35131   0.11924   1.000
    C97     C    0.13383   0.85124   0.11936   1.000
    C98     C    0.63435   0.35131   0.11924   1.000
    C99     C    0.63382   0.85124   0.11936   1.000
    C100    C    0.17561   0.27205   0.17316   1.000
    C101    C    0.17521   0.77193   0.17319   1.000
    C102    C    0.67561   0.27205   0.17316   1.000
    C103    C    0.67520   0.77193   0.17319   1.000
    C104    C    0.01722   0.34118   0.22378   1.000
    C105    C    0.01679   0.84109   0.22381   1.000
    C106    C    0.51721   0.34118   0.22378   1.000
    C107    C    0.51678   0.84109   0.22381   1.000
    C108    C    0.47454   0.42305   0.17300   1.000
    C109    C    0.47397   0.92301   0.17314   1.000
    C110    C    0.97453   0.42305   0.17300   1.000
    C111    C    0.97396   0.92301   0.17314   1.000
    C112    C    0.43087   0.38155   0.59950   1.000
    C113    C    0.43053   0.88149   0.59958   1.000
    C114    C    0.93086   0.38155   0.59950   1.000
    C115    C    0.93053   0.88149   0.59958   1.000
    C116    C    0.38523   0.35954   0.49143   1.000
    C117    C    0.38490   0.85954   0.49152   1.000
    C118    C    0.88522   0.35954   0.49143   1.000
    C119    C    0.88490   0.85954   0.49152   1.000
    C120    C    0.23182   0.28715   0.45819   1.000
    C121    C    0.23152   0.78718   0.45824   1.000
    C122    C    0.73182   0.28716   0.45819   1.000
    C123    C    0.73151   0.78719   0.45824   1.000
    C124    C    0.27634   0.30964   0.56677   1.000
    C125    C    0.27604   0.80963   0.56682   1.000
    C126    C    0.77633   0.30964   0.56677   1.000
    C127    C    0.77604   0.80964   0.56682   1.000
    C128    C    0.38466   0.39911   0.38116   1.000
    C129    C    0.38430   0.89911   0.38115   1.000
    C130    C    0.88465   0.39912   0.38116   1.000
    C131    C    0.88428   0.89911   0.38115   1.000
    C132    C    0.42561   0.47844   0.32729   1.000
    C133    C    0.42517   0.97841   0.32724   1.000
    C134    C    0.92560   0.47844   0.32729   1.000
    C135    C    0.92516   0.97842   0.32720   1.000
    C136    C    0.26737   0.40955   0.27649   1.000
    C137    C    0.26697   0.90957   0.27645   1.000
    C138    C    0.76736   0.40955   0.27649   1.000
    C139    C    0.76696   0.90957   0.27645   1.000
    C140    C    0.22501   0.32761   0.32719   1.000
    C141    C    0.22467   0.82764   0.32718   1.000
    C142    C    0.72500   0.32761   0.32700   1.000
    C143    C    0.72466   0.82764   0.32718   1.000
    C144    C    0.11378   0.11004   0.15410   1.000
    C145    C    0.11393   0.61003   0.15438   1.000
    C146    C    0.61377   0.11004   0.15413   1.000
    C147    C    0.61392   0.61003   0.15438   1.000
    C148    C    0.14335   0.09697   0.08919   1.000
    C149    C    0.14331   0.59701   0.08942   1.000
    C150    C    0.64334   0.09697   0.08919   1.000
    C151    C    0.64330   0.59701   0.08942   1.000
    C152    C    0.25361   0.11141   0.06805   1.000
    C153    C    0.25352   0.61146   0.06822   1.000
    C154    C    0.75361   0.11141   0.06805   1.000
    C155    C    0.75351   0.61145   0.06822   1.000
    C156    C    0.27959   0.09896   0.00771   1.000
    C157    C    0.27934   0.59901   0.00786   1.000
    C158    C    0.77958   0.09896   0.00771   1.000
    C159    C    0.77933   0.59901   0.00786   1.000
    C160    C    0.19534   0.07133   0.96870   1.000
    C161    C    0.19501   0.57139   0.96890   1.000
    C162    C    0.69533   0.07133   0.96870   1.000
    C163    C    0.69500   0.57138   0.96890   1.000
    C164    C    0.08423   0.05761   0.98891   1.000
    C165    C    0.08393   0.55769   0.98910   1.000
    C166    C    0.58422   0.05761   0.98891   1.000
    C167    C    0.58392   0.55769   0.98910   1.000
    C168    C    0.05908   0.07070   0.04921   1.000
    C169    C    0.05893   0.57077   0.04949   1.000
    C170    C    0.55907   0.07070   0.04921   1.000
    C171    C    0.55892   0.57077   0.04949   1.000
    C172    C    0.19783   0.10888   0.85730   1.000
    C173    C    0.19737   0.60887   0.85744   1.000
    C174    C    0.69782   0.10888   0.85730   1.000
    C175    C    0.69736   0.60887   0.85744   1.000
    C176    C    0.28195   0.15140   0.85831   1.000
    C177    C    0.28154   0.65136   0.85841   1.000
    C178    C    0.78194   0.15140   0.85830   1.000
    C179    C    0.78153   0.65136   0.85841   1.000
    C180    C    0.25838   0.19587   0.82854   1.000
    C181    C    0.25806   0.69580   0.82860   1.000
    C182    C    0.75836   0.19587   0.82854   1.000
    C183    C    0.75805   0.69580   0.82860   1.000
    C184    C    0.15032   0.19885   0.79909   1.000
    C185    C    0.15004   0.69879   0.79913   1.000
    C186    C    0.65031   0.19885   0.79909   1.000
    C187    C    0.65002   0.69879   0.79913   1.000
    C188    C    0.06648   0.15636   0.79951   1.000
    C189    C    0.06614   0.65633   0.79957   1.000
    C190    C    0.56647   0.15636   0.79951   1.000
    C191    C    0.56613   0.65633   0.79957   1.000
    C192    C    0.08973   0.11081   0.82798   1.000
    C193    C    0.08930   0.61080   0.82809   1.000
    C194    C    0.58972   0.11081   0.82798   1.000
    C195    C    0.58929   0.61080   0.82809   1.000
    C196    C    0.12620   0.24667   0.76550   1.000
    C197    C    0.12599   0.74661   0.76556   1.000
    C198    C    0.62619   0.24667   0.76550   1.000
    C199    C    0.62598   0.74661   0.76556   1.000
    C200    C    0.36419   0.14038   0.34534   1.000
    C201    C    0.36389   0.64032   0.34540   1.000
    C202    C    0.86418   0.14038   0.34534   1.000
    C203    C    0.86388   0.64032   0.34546   1.000
    C204    C    0.39359   0.15327   0.41031   1.000
    C205    C    0.39323   0.65323   0.41042   1.000
    C206    C    0.89358   0.15327   0.41031   1.000
    C207    C    0.89321   0.65323   0.41042   1.000
    C208    C    0.00380   0.13880   0.43149   1.000
    C209    C    0.00344   0.63876   0.43160   1.000
    C210    C    0.50379   0.13880   0.43149   1.000
    C211    C    0.50342   0.63876   0.43160   1.000
    C212    C    0.02945   0.15105   0.49188   1.000
    C213    C    0.02912   0.65104   0.49198   1.000
    C214    C    0.52944   0.15105   0.49188   1.000
    C215    C    0.52911   0.65104   0.49198   1.000
    C216    C    0.44499   0.17850   0.53092   1.000
    C217    C    0.44468   0.67852   0.53101   1.000
    C218    C    0.94498   0.17850   0.53092   1.000
    C219    C    0.94467   0.67852   0.53101   1.000
    C220    C    0.33394   0.19223   0.51065   1.000
    C221    C    0.33362   0.69224   0.51075   1.000
    C222    C    0.83393   0.19223   0.51065   1.000
    C223    C    0.83361   0.69225   0.51075   1.000
    C224    C    0.30909   0.17934   0.45030   1.000
    C225    C    0.30874   0.67933   0.45040   1.000
    C226    C    0.80908   0.17934   0.45030   1.000
    C227    C    0.80873   0.67934   0.45040   1.000
    C228    C    0.44725   0.14063   0.64226   1.000
    C229    C    0.44700   0.64066   0.64230   1.000
    C230    C    0.94724   0.14063   0.64226   1.000
    C231    C    0.94699   0.64066   0.64230   1.000
    C232    C    0.03154   0.09817   0.64120   1.000
    C233    C    0.03126   0.59818   0.64122   1.000
    C234    C    0.53153   0.09817   0.64120   1.000
    C235    C    0.53124   0.59818   0.64122   1.000
    C236    C    0.00825   0.05369   0.67101   1.000
    C237    C    0.00794   0.55369   0.67101   1.000
    C238    C    0.50824   0.05369   0.67101   1.000
    C239    C    0.50792   0.55369   0.67101   1.000
    C240    C    0.40032   0.05062   0.70050   1.000
    C241    C    0.40001   0.55064   0.70050   1.000
    C242    C    0.90031   0.05062   0.70058   1.000
    C243    C    0.90000   0.55064   0.70050   1.000
    C244    C    0.31624   0.09301   0.70010   1.000
    C245    C    0.31594   0.59303   0.70015   1.000
    C246    C    0.81623   0.09301   0.70010   1.000
    C247    C    0.81593   0.59303   0.70015   1.000
    C248    C    0.33921   0.13858   0.67163   1.000
    C249    C    0.33894   0.63861   0.67166   1.000
    C250    C    0.83920   0.13858   0.67163   1.000
    C251    C    0.83893   0.63861   0.67160   1.000
    C252    C    0.37675   0.00286   0.73433   1.000
    C253    C    0.37640   0.50289   0.73433   1.000
    C254    C    0.87674   0.00286   0.73433   1.000
    C255    C    0.87639   0.50289   0.73433   1.000
    C256    C    0.38619   0.38997   0.84561   1.000
    C257    C    0.38624   0.88996   0.84582   1.000
    C258    C    0.88618   0.38997   0.84561   1.000
    C259    C    0.88623   0.88996   0.84582   1.000
    C260    C    0.35683   0.40301   0.91057   1.000
    C261    C    0.35673   0.90302   0.91077   1.000
    C262    C    0.85682   0.40301   0.91057   1.000
    C263    C    0.85672   0.90302   0.91077   1.000
    C264    C    0.24662   0.38856   0.93178   1.000
    C265    C    0.24647   0.88857   0.93192   1.000
    C266    C    0.74662   0.38855   0.93178   1.000
    C267    C    0.74646   0.88857   0.93192   1.000
    C268    C    0.22081   0.40100   0.99213   1.000
    C269    C    0.22051   0.90101   0.99226   1.000
    C270    C    0.72080   0.40100   0.99213   1.000
    C271    C    0.72050   0.90101   0.99226   1.000
    C272    C    0.30514   0.42863   0.03109   1.000
    C273    C    0.30476   0.92864   0.03127   1.000
    C274    C    0.80513   0.42863   0.03109   1.000
    C275    C    0.80475   0.92864   0.03127   1.000
    C276    C    0.41622   0.44233   0.01081   1.000
    C277    C    0.41588   0.94236   0.01105   1.000
    C278    C    0.91621   0.44233   0.01081   1.000
    C279    C    0.91587   0.94236   0.01105   1.000
    C280    C    0.44121   0.42924   0.95049   1.000
    C281    C    0.44101   0.92927   0.95075   1.000
    C282    C    0.94120   0.42924   0.95049   1.000
    C283    C    0.94100   0.92927   0.95075   1.000
    C284    C    0.30281   0.39115   0.14255   1.000
    C285    C    0.30227   0.89110   0.14268   1.000
    C286    C    0.80280   0.39115   0.14255   1.000
    C287    C    0.80226   0.89110   0.14268   1.000
    C288    C    0.21864   0.34866   0.14157   1.000
    C289    C    0.21814   0.84859   0.14160   1.000
    C290    C    0.71864   0.34866   0.14157   1.000
    C291    C    0.71813   0.84858   0.14167   1.000
    C292    C    0.24213   0.30422   0.17139   1.000
    C293    C    0.24170   0.80411   0.17140   1.000
    C294    C    0.74212   0.30422   0.17139   1.000
    C295    C    0.74169   0.80411   0.17144   1.000
    C296    C    0.35014   0.30124   0.20088   1.000
    C297    C    0.34974   0.80113   0.20090   1.000
    C298    C    0.85013   0.30124   0.20088   1.000
    C299    C    0.84974   0.80113   0.20090   1.000
    C300    C    0.43404   0.34370   0.20042   1.000
    C301    C    0.43359   0.84361   0.20040   1.000
    C302    C    0.93402   0.34370   0.20042   1.000
    C303    C    0.93358   0.84361   0.20048   1.000
    C304    C    0.41088   0.38922   0.17190   1.000
    C305    C    0.41036   0.88916   0.17201   1.000
    C306    C    0.91087   0.38922   0.17190   1.000
    C307    C    0.91035   0.88916   0.17201   1.000
    C308    C    0.37416   0.25342   0.23445   1.000
    C309    C    0.37384   0.75331   0.23446   1.000
    C310    C    0.87415   0.25342   0.23445   1.000
    C311    C    0.87383   0.75331   0.23446   1.000
    C312    C    0.13618   0.35966   0.65455   1.000
    C313    C    0.13595   0.85962   0.65460   1.000
    C314    C    0.63617   0.35966   0.65455   1.000
    C315    C    0.63594   0.85962   0.65460   1.000
    C316    C    0.10688   0.34675   0.58958   1.000
    C317    C    0.10659   0.84672   0.58966   1.000
    C318    C    0.60687   0.34675   0.58958   1.000
    C319    C    0.60657   0.84672   0.58966   1.000
    C320    C    0.49668   0.36122   0.56839   1.000
    C321    C    0.49637   0.86119   0.56840   1.000
    C322    C    0.99667   0.36122   0.56839   1.000
    C323    C    0.99636   0.86119   0.56840   1.000
    C324    C    0.47103   0.34894   0.50800   1.000
    C325    C    0.47071   0.84894   0.50809   1.000
    C326    C    0.97101   0.34894   0.50800   1.000
    C327    C    0.97070   0.84894   0.50809   1.000
    C328    C    0.05548   0.32146   0.46899   1.000
    C329    C    0.05517   0.82149   0.46905   1.000
    C330    C    0.55547   0.32146   0.46899   1.000
    C331    C    0.55516   0.82149   0.46905   1.000
    C332    C    0.16653   0.30774   0.48926   1.000
    C333    C    0.16622   0.80776   0.48931   1.000
    C334    C    0.66652   0.30774   0.48926   1.000
    C335    C    0.66621   0.80776   0.48931   1.000
    C336    C    0.19138   0.32065   0.54962   1.000
    C337    C    0.19108   0.82064   0.54967   1.000
    C338    C    0.69137   0.32065   0.54962   1.000
    C339    C    0.69107   0.82064   0.54967   1.000
    C340    C    0.05318   0.35934   0.35771   1.000
    C341    C    0.05285   0.85936   0.35772   1.000
    C342    C    0.55317   0.35934   0.35770   1.000
    C343    C    0.55284   0.85936   0.35772   1.000
    C344    C    0.46891   0.40182   0.35879   1.000
    C345    C    0.46855   0.90182   0.35878   1.000
    C346    C    0.96890   0.40182   0.35879   1.000
    C347    C    0.96854   0.90182   0.35878   1.000
    C348    C    0.49222   0.44630   0.32900   1.000
    C349    C    0.49182   0.94630   0.32897   1.000
    C350    C    0.99221   0.44630   0.32900   1.000
    C351    C    0.99181   0.94630   0.32897   1.000
    C352    C    0.10014   0.44936   0.29942   1.000
    C353    C    0.09974   0.94937   0.29900   1.000
    C354    C    0.60013   0.44936   0.29942   1.000
    C355    C    0.59973   0.94937   0.29900   1.000
    C356    C    0.18422   0.40697   0.29986   1.000
    C357    C    0.18383   0.90699   0.29984   1.000
    C358    C    0.68421   0.40697   0.29986   1.000
    C359    C    0.68383   0.90699   0.29984   1.000
    C360    C    0.16123   0.36140   0.32835   1.000
    C361    C    0.16088   0.86142   0.32834   1.000
    C362    C    0.66122   0.36140   0.32835   1.000
    C363    C    0.66087   0.86142   0.32834   1.000
    C364    C    0.12372   0.49711   0.26567   1.000
    C365    C    0.12329   0.99714   0.26565   1.000
    C366    C    0.62371   0.49711   0.26560   1.000
    C367    C    0.62328   0.99714   0.26565   1.000
    C368    C    0.23370   0.05105   0.89263   1.000
    C369    C    0.23328   0.55107   0.89281   1.000
    C370    C    0.73369   0.05105   0.89263   1.000
    C371    C    0.73327   0.55107   0.89281   1.000
    C372    C    0.48304   0.19860   0.60708   1.000
    C373    C    0.48280   0.69863   0.60715   1.000
    C374    C    0.98303   0.19860   0.60708   1.000
    C375    C    0.98279   0.69863   0.60715   1.000
    C376    C    0.26687   0.44894   0.10718   1.000
    C377    C    0.26640   0.94892   0.10734   1.000
    C378    C    0.76686   0.44894   0.10718   1.000
    C379    C    0.76639   0.94892   0.10734   1.000
    C380    C    0.01737   0.30137   0.39285   1.000
    C381    C    0.01708   0.80139   0.39200   1.000
    C382    C    0.51736   0.30137   0.39285   1.000
    C383    C    0.51707   0.80139   0.39200   1.000
    C384    C    0.19943   0.11925   0.19127   1.000
    C385    C    0.19962   0.61912   0.19149   1.000
    C386    C    0.69942   0.11926   0.19127   1.000
    C387    C    0.69961   0.61913   0.19149   1.000
    C388    C    0.00587   0.11363   0.16929   1.000
    C389    C    0.00604   0.61373   0.16959   1.000
    C390    C    0.50586   0.11363   0.16929   1.000
    C391    C    0.50603   0.61373   0.16959   1.000
    C392    C    0.01831   0.25824   0.75767   1.000
    C393    C    0.01811   0.75819   0.75760   1.000
    C394    C    0.51830   0.25824   0.75767   1.000
    C395    C    0.51809   0.75819   0.75760   1.000
    C396    C    0.15476   0.00445   0.86913   1.000
    C397    C    0.15441   0.50443   0.86935   1.000
    C398    C    0.65475   0.00445   0.86913   1.000
    C399    C    0.65441   0.50443   0.86935   1.000
    C400    C    0.21534   0.27069   0.74748   1.000
    C401    C    0.21515   0.77063   0.74752   1.000
    C402    C    0.71533   0.27069   0.74748   1.000
    C403    C    0.71514   0.77063   0.74752   1.000
    C404    C    0.36159   0.04373   0.88971   1.000
    C405    C    0.36117   0.54377   0.88984   1.000
    C406    C    0.86158   0.04373   0.88971   1.000
    C407    C    0.86116   0.54377   0.88984   1.000
    C408    C    0.44980   0.13159   0.30815   1.000
    C409    C    0.44959   0.63147   0.30831   1.000
    C410    C    0.94979   0.13159   0.30815   1.000
    C411    C    0.94958   0.63147   0.30831   1.000
    C412    C    0.25626   0.13648   0.33021   1.000
    C413    C    0.25600   0.63647   0.33028   1.000
    C414    C    0.75625   0.13648   0.33021   1.000
    C415    C    0.75599   0.63647   0.33028   1.000
    C416    C    0.26868   0.49109   0.74229   1.000
    C417    C    0.26904   0.99101   0.74229   1.000
    C418    C    0.76867   0.49109   0.74229   1.000
    C419    C    0.76903   0.99101   0.74229   1.000
    C420    C    0.40404   0.24515   0.63067   1.000
    C421    C    0.40383   0.74518   0.63076   1.000
    C422    C    0.90403   0.24515   0.63067   1.000
    C423    C    0.90382   0.74518   0.63076   1.000
    C424    C    0.46584   0.47917   0.75249   1.000
    C425    C    0.46622   0.97916   0.75248   1.000
    C426    C    0.96583   0.47917   0.75249   1.000
    C427    C    0.96621   0.97916   0.75248   1.000
    C428    C    0.11091   0.20602   0.61012   1.000
    C429    C    0.11068   0.70603   0.61015   1.000
    C430    C    0.61090   0.20602   0.61012   1.000
    C431    C    0.61067   0.70603   0.61015   1.000
    C432    C    0.30047   0.38087   0.80851   1.000
    C433    C    0.30055   0.88077   0.80870   1.000
    C434    C    0.80046   0.38087   0.80851   1.000
    C435    C    0.80054   0.88077   0.80870   1.000
    C436    C    0.49407   0.38627   0.83039   1.000
    C437    C    0.49413   0.88635   0.83063   1.000
    C438    C    0.99406   0.38627   0.83039   1.000
    C439    C    0.99412   0.88635   0.83063   1.000
    C440    C    0.48204   0.24185   0.24230   1.000
    C441    C    0.48172   0.74172   0.24232   1.000
    C442    C    0.98203   0.24185   0.24230   1.000
    C443    C    0.98171   0.74172   0.24232   1.000
    C444    C    0.34568   0.49559   0.13065   1.000
    C445    C    0.34530   0.99553   0.13080   1.000
    C446    C    0.84567   0.49559   0.13065   1.000
    C447    C    0.84529   0.99553   0.13084   1.000
    C448    C    0.28497   0.22939   0.25247   1.000
    C449    C    0.28468   0.72930   0.25252   1.000
    C450    C    0.78496   0.22939   0.25247   1.000
    C451    C    0.78467   0.72930   0.25252   1.000
    C452    C    0.13896   0.45622   0.11014   1.000
    C453    C    0.13850   0.95623   0.11026   1.000
    C454    C    0.63895   0.45622   0.11014   1.000
    C455    C    0.63849   0.95623   0.11026   1.000
    C456    C    0.05046   0.36852   0.69169   1.000
    C457    C    0.05030   0.86843   0.69180   1.000
    C458    C    0.55045   0.36852   0.69169   1.000
    C459    C    0.55029   0.86843   0.69180   1.000
    C460    C    0.24406   0.36352   0.66974   1.000
    C461    C    0.24386   0.86351   0.66978   1.000
    C462    C    0.74405   0.36352   0.66974   1.000
    C463    C    0.74385   0.86351   0.66978   1.000
    C464    C    0.23099   0.00899   0.25769   1.000
    C465    C    0.23144   0.50891   0.25771   1.000
    C466    C    0.73098   0.00899   0.25769   1.000
    C467    C    0.73143   0.50891   0.25771   1.000
    C468    C    0.09635   0.25482   0.36923   1.000
    C469    C    0.09607   0.75484   0.36929   1.000
    C470    C    0.59634   0.25482   0.36923   1.000
    C471    C    0.59606   0.75484   0.36929   1.000
    C472    C    0.03380   0.02084   0.24751   1.000
    C473    C    0.03427   0.52082   0.24751   1.000
    C474    C    0.53379   0.02084   0.24751   1.000
    C475    C    0.53426   0.52082   0.24751   1.000
    C476    C    0.38948   0.29396   0.38985   1.000
    C477    C    0.38921   0.79397   0.38987   1.000
    C478    C    0.88947   0.29396   0.38985   1.000
    C479    C    0.88919   0.79397   0.38987   1.000
    O480    O    0.26660   0.10519   0.03788   1.000
    O481    O    0.23747   0.08514   0.98821   1.000
    O482    O    0.32251   0.10424   0.99944   1.000
    O483    O    0.76659   0.10519   0.03788   1.000
    O484    O    0.73746   0.08514   0.98821   1.000
    O485    O    0.82250   0.10424   0.99944   1.000
    O486    O    0.26643   0.60523   0.03804   1.000
    O487    O    0.23718   0.58520   0.98838   1.000
    O488    O    0.32225   0.60429   0.99957   1.000
    O489    O    0.76642   0.60523   0.03804   1.000
    O490    O    0.73717   0.58520   0.98838   1.000
    O491    O    0.82224   0.60429   0.99957   1.000
    O492    O    0.67790   0.39572   0.00042   1.000
    O493    O    0.17791   0.39572   0.00042   1.000
    O494    O    0.67758   0.89573   0.00053   1.000
    O495    O    0.17759   0.89573   0.00053   1.000
    O496    O    0.36068   0.43548   0.02095   1.000
    O497    O    0.44881   0.45267   0.02634   1.000
    O498    O    0.42872   0.43579   0.98065   1.000
    O499    O    0.86067   0.43548   0.02095   1.000
    O500    O    0.94880   0.45267   0.02634   1.000
    O501    O    0.92871   0.43579   0.98065   1.000
    O502    O    0.36032   0.93550   0.02116   1.000
    O503    O    0.44843   0.95270   0.02660   1.000
    O504    O    0.42844   0.93581   0.98090   1.000
    O505    O    0.86031   0.93550   0.02116   1.000
    O506    O    0.94842   0.95270   0.02660   1.000
    O507    O    0.92843   0.93581   0.98090   1.000
    O508    O    0.78599   0.43879   0.06914   1.000
    O509    O    0.76297   0.41482   0.01161   1.000
    O510    O    0.28600   0.43879   0.06914   1.000
    O511    O    0.26297   0.41482   0.01161   1.000
    O512    O    0.78557   0.93878   0.06931   1.000
    O513    O    0.76263   0.91483   0.01177   1.000
    O514    O    0.28558   0.93878   0.06931   1.000
    O515    O    0.26264   0.91483   0.01177   1.000
    O516    O    0.01655   0.06521   0.05776   1.000
    O517    O    0.10121   0.08383   0.06920   1.000
    O518    O    0.07165   0.06416   0.01906   1.000
    O519    O    0.51655   0.06521   0.05776   1.000
    O520    O    0.60120   0.08383   0.06920   1.000
    O521    O    0.57164   0.06416   0.01906   1.000
    O522    O    0.51643   0.56528   0.05807   1.000
    O523    O    0.60111   0.58389   0.06945   1.000
    O524    O    0.57142   0.56423   0.01929   1.000
    O525    O    0.01643   0.56528   0.05807   1.000
    O526    O    0.10112   0.58389   0.06945   1.000
    O527    O    0.07143   0.56423   0.01929   1.000
    O528    O    0.19848   0.10419   0.07862   1.000
    O529    O    0.28644   0.12163   0.08361   1.000
    O530    O    0.69847   0.10419   0.07862   1.000
    O531    O    0.78643   0.12163   0.08361   1.000
    O532    O    0.19842   0.60423   0.07882   1.000
    O533    O    0.28638   0.62167   0.08376   1.000
    O534    O    0.69841   0.60423   0.07882   1.000
    O535    O    0.78637   0.62167   0.08376   1.000
    O536    O    0.62855   0.10350   0.12166   1.000
    O537    O    0.12856   0.10350   0.12165   1.000
    O538    O    0.12862   0.60352   0.12190   1.000
    O539    O    0.62861   0.60352   0.12190   1.000
    O540    O    0.20291   0.45258   0.10866   1.000
    O541    O    0.30627   0.47227   0.11891   1.000
    O542    O    0.28484   0.42005   0.12486   1.000
    O543    O    0.70290   0.45258   0.10866   1.000
    O544    O    0.80626   0.47227   0.11891   1.000
    O545    O    0.78483   0.42005   0.12486   1.000
    O546    O    0.70244   0.95258   0.10880   1.000
    O547    O    0.80584   0.97223   0.11909   1.000
    O548    O    0.78432   0.92001   0.12501   1.000
    O549    O    0.20245   0.95258   0.10880   1.000
    O550    O    0.30585   0.97223   0.11907   1.000
    O551    O    0.28433   0.92001   0.12501   1.000
    O552    O    0.67649   0.34999   0.13040   1.000
    O553    O    0.17650   0.34999   0.13040   1.000
    O554    O    0.67598   0.84991   0.13051   1.000
    O555    O    0.17599   0.84991   0.13048   1.000
    O556    O    0.76072   0.36990   0.14206   1.000
    O557    O    0.73038   0.32644   0.15648   1.000
    O558    O    0.26073   0.36990   0.14206   1.000
    O559    O    0.23038   0.32644   0.15648   1.000
    O560    O    0.26020   0.86984   0.14214   1.000
    O561    O    0.22992   0.82635   0.15650   1.000
    O562    O    0.76020   0.86984   0.14217   1.000
    O563    O    0.72991   0.82635   0.15655   1.000
    O564    O    0.85684   0.39019   0.15723   1.000
    O565    O    0.35685   0.39019   0.15723   1.000
    O566    O    0.85630   0.89013   0.15735   1.000
    O567    O    0.35631   0.89013   0.15735   1.000
    O568    O    0.05982   0.11183   0.16170   1.000
    O569    O    0.15661   0.11465   0.17268   1.000
    O570    O    0.55981   0.11183   0.16171   1.000
    O571    O    0.65660   0.11465   0.17270   1.000
    O572    O    0.05999   0.61188   0.16198   1.000
    O573    O    0.15678   0.61458   0.17293   1.000
    O574    O    0.55997   0.61188   0.16198   1.000
    O575    O    0.65677   0.61458   0.17293   1.000
    O576    O    0.70886   0.28813   0.17227   1.000
    O577    O    0.79612   0.30273   0.18613   1.000
    O578    O    0.20887   0.28813   0.17227   1.000
    O579    O    0.29613   0.30273   0.18613   1.000
    O580    O    0.20846   0.78802   0.17230   1.000
    O581    O    0.29572   0.80262   0.18615   1.000
    O582    O    0.70845   0.78802   0.17231   1.000
    O583    O    0.79571   0.80262   0.18617   1.000
    O584    O    0.94270   0.40613   0.17245   1.000
    O585    O    0.92245   0.36646   0.18616   1.000
    O586    O    0.44271   0.40613   0.17245   1.000
    O587    O    0.42246   0.36646   0.18616   1.000
    O588    O    0.94216   0.90609   0.17258   1.000
    O589    O    0.92197   0.86639   0.18624   1.000
    O590    O    0.44217   0.90609   0.17258   1.000
    O591    O    0.42198   0.86639   0.18620   1.000
    O592    O    0.39167   0.82237   0.20065   1.000
    O593    O    0.47519   0.84235   0.21210   1.000
    O594    O    0.39209   0.32247   0.20065   1.000
    O595    O    0.47562   0.34244   0.21210   1.000
    O596    O    0.89208   0.32247   0.20065   1.000
    O597    O    0.97562   0.34244   0.21210   1.000
    O598    O    0.89166   0.82237   0.20069   1.000
    O599    O    0.97519   0.84235   0.21215   1.000
    O600    O    0.36215   0.27733   0.21766   1.000
    O601    O    0.86214   0.27733   0.21766   1.000
    O602    O    0.36179   0.77722   0.21768   1.000
    O603    O    0.86178   0.77722   0.21768   1.000
    O604    O    0.45042   0.04422   0.23500   1.000
    O605    O    0.29902   0.03830   0.24009   1.000
    O606    O    0.95042   0.04422   0.23500   1.000
    O607    O    0.79901   0.03830   0.24009   1.000
    O608    O    0.45079   0.54417   0.23505   1.000
    O609    O    0.29938   0.53821   0.24014   1.000
    O610    O    0.95079   0.54417   0.23505   1.000
    O611    O    0.79937   0.53821   0.24014   1.000
    O612    O    0.92809   0.24763   0.23837   1.000
    O613    O    0.82955   0.24140   0.24346   1.000
    O614    O    0.42810   0.24764   0.23837   1.000
    O615    O    0.32956   0.24140   0.24346   1.000
    O616    O    0.92777   0.74751   0.23839   1.000
    O617    O    0.82925   0.74130   0.24349   1.000
    O618    O    0.42778   0.74751   0.23839   1.000
    O619    O    0.32926   0.74130   0.24349   1.000
    O620    O    0.54987   0.21242   0.25979   1.000
    O621    O    0.04987   0.21242   0.25979   1.000
    O622    O    0.54956   0.71231   0.25983   1.000
    O623    O    0.04956   0.71231   0.25983   1.000
    O624    O    0.57899   0.50896   0.25656   1.000
    O625    O    0.57853   0.00899   0.25658   1.000
    O626    O    0.07900   0.50896   0.25659   1.000
    O627    O    0.07855   0.00899   0.25658   1.000
    O628    O    0.20134   0.20619   0.26488   1.000
    O629    O    0.70133   0.20619   0.26488   1.000
    O630    O    0.20105   0.70611   0.26493   1.000
    O631    O    0.70104   0.70611   0.26493   1.000
    O632    O    0.17714   0.00307   0.26167   1.000
    O633    O    0.67713   0.00307   0.26167   1.000
    O634    O    0.17758   0.50301   0.26169   1.000
    O635    O    0.67757   0.50301   0.26165   1.000
    O636    O    0.61192   0.47323   0.28251   1.000
    O637    O    0.61150   0.97326   0.28232   1.000
    O638    O    0.11152   0.97326   0.28232   1.000
    O639    O    0.11193   0.47323   0.28254   1.000
    O640    O    0.72539   0.90828   0.28814   1.000
    O641    O    0.22540   0.90828   0.28814   1.000
    O642    O    0.22579   0.40826   0.28818   1.000
    O643    O    0.72578   0.40826   0.28818   1.000
    O644    O    0.14179   0.92818   0.29942   1.000
    O645    O    0.04578   0.94784   0.31398   1.000
    O646    O    0.64178   0.92818   0.29942   1.000
    O647    O    0.54578   0.94784   0.31398   1.000
    O648    O    0.64217   0.42816   0.29964   1.000
    O649    O    0.54618   0.44783   0.31421   1.000
    O650    O    0.14218   0.42816   0.29964   1.000
    O651    O    0.04617   0.44783   0.31421   1.000
    O652    O    0.17236   0.88421   0.31409   1.000
    O653    O    0.67235   0.88421   0.31409   1.000
    O654    O    0.17273   0.38418   0.31410   1.000
    O655    O    0.67272   0.38418   0.31410   1.000
    O656    O    0.40700   0.13598   0.32674   1.000
    O657    O    0.90698   0.13598   0.32674   1.000
    O658    O    0.90673   0.63589   0.32688   1.000
    O659    O    0.40674   0.63589   0.32685   1.000
    O660    O    0.69311   0.34451   0.32767   1.000
    O661    O    0.69277   0.84453   0.32776   1.000
    O662    O    0.19278   0.84453   0.32776   1.000
    O663    O    0.19312   0.34451   0.32777   1.000
    O664    O    0.95849   0.96236   0.32808   1.000
    O665    O    0.45850   0.96236   0.32810   1.000
    O666    O    0.45892   0.46237   0.32815   1.000
    O667    O    0.95890   0.46237   0.32815   1.000
    O668    O    0.10687   0.86039   0.34303   1.000
    O669    O    0.60685   0.86039   0.34303   1.000
    O670    O    0.60719   0.36037   0.34302   1.000
    O671    O    0.10720   0.36037   0.34303   1.000
    O672    O    0.48019   0.92406   0.34387   1.000
    O673    O    0.98017   0.92406   0.34387   1.000
    O674    O    0.48057   0.42406   0.34390   1.000
    O675    O    0.98056   0.42406   0.34390   1.000
    O676    O    0.31023   0.13843   0.33777   1.000
    O677    O    0.81022   0.13843   0.33777   1.000
    O678    O    0.30994   0.63839   0.33784   1.000
    O679    O    0.80993   0.63839   0.33787   1.000
    O680    O    0.37889   0.14683   0.37782   1.000
    O681    O    0.87888   0.14682   0.37782   1.000
    O682    O    0.37856   0.64678   0.37791   1.000
    O683    O    0.87855   0.64678   0.37794   1.000
    O684    O    0.51104   0.38058   0.35824   1.000
    O685    O    0.53526   0.33035   0.37527   1.000
    O686    O    0.01104   0.38058   0.35825   1.000
    O687    O    0.03527   0.33036   0.37528   1.000
    O688    O    0.51069   0.88059   0.35825   1.000
    O689    O    0.53495   0.83038   0.37486   1.000
    O690    O    0.01069   0.88059   0.35825   1.000
    O691    O    0.03496   0.83038   0.37486   1.000
    O692    O    0.92641   0.90046   0.36997   1.000
    O693    O    0.42642   0.90046   0.36997   1.000
    O694    O    0.92677   0.40047   0.36997   1.000
    O695    O    0.42679   0.40047   0.36997   1.000
    O696    O    0.55685   0.27809   0.38104   1.000
    O697    O    0.05686   0.27810   0.38104   1.000
    O698    O    0.55656   0.77812   0.38065   1.000
    O699    O    0.05657   0.77812   0.38065   1.000
    O700    O    0.45342   0.29767   0.39135   1.000
    O701    O    0.95342   0.29766   0.39135   1.000
    O702    O    0.95314   0.79768   0.39093   1.000
    O703    O    0.45314   0.79768   0.39093   1.000
    O704    O    0.03613   0.81144   0.43052   1.000
    O705    O    0.53611   0.81144   0.43052   1.000
    O706    O    0.03642   0.31142   0.43092   1.000
    O707    O    0.53641   0.31142   0.43092   1.000
    O708    O    0.03672   0.12865   0.41594   1.000
    O709    O    0.53671   0.12865   0.41594   1.000
    O710    O    0.03634   0.62860   0.41605   1.000
    O711    O    0.53633   0.62860   0.41605   1.000
    O712    O    0.44869   0.14603   0.42090   1.000
    O713    O    0.35134   0.16631   0.43030   1.000
    O714    O    0.94869   0.14603   0.42090   1.000
    O715    O    0.85133   0.16631   0.43030   1.000
    O716    O    0.44833   0.64600   0.42101   1.000
    O717    O    0.35098   0.66628   0.43041   1.000
    O718    O    0.94833   0.64600   0.42101   1.000
    O719    O    0.85097   0.66628   0.43041   1.000
    O720    O    0.01663   0.14492   0.46169   1.000
    O721    O    0.51662   0.14493   0.46169   1.000
    O722    O    0.01628   0.64490   0.46179   1.000
    O723    O    0.51627   0.64490   0.46179   1.000
    O724    O    0.76660   0.18485   0.44172   1.000
    O725    O    0.26661   0.18485   0.44172   1.000
    O726    O    0.26626   0.68484   0.44182   1.000
    O727    O    0.76625   0.68484   0.44182   1.000
    O728    O    0.32151   0.18578   0.48047   1.000
    O729    O    0.82150   0.18579   0.48047   1.000
    O730    O    0.32118   0.68579   0.48057   1.000
    O731    O    0.82117   0.68579   0.48057   1.000
    O732    O    0.69917   0.29745   0.47372   1.000
    O733    O    0.19918   0.29745   0.47372   1.000
    O734    O    0.69886   0.79747   0.47377   1.000
    O735    O    0.19887   0.79747   0.47377   1.000
    O736    O    0.61100   0.31460   0.47912   1.000
    O737    O    0.51325   0.33520   0.48849   1.000
    O738    O    0.11101   0.31460   0.47912   1.000
    O739    O    0.01325   0.33520   0.48849   1.000
    O740    O    0.61069   0.81462   0.47918   1.000
    O741    O    0.51294   0.83521   0.48857   1.000
    O742    O    0.11070   0.81462   0.47918   1.000
    O743    O    0.01294   0.83521   0.48857   1.000
    O744    O    0.67895   0.31419   0.51944   1.000
    O745    O    0.17896   0.31419   0.51944   1.000
    O746    O    0.17865   0.81420   0.51949   1.000
    O747    O    0.67864   0.81420   0.51949   1.000
    O748    O    0.42813   0.35424   0.49972   1.000
    O749    O    0.92812   0.35424   0.49972   1.000
    O750    O    0.42781   0.85424   0.49980   1.000
    O751    O    0.92780   0.85424   0.49980   1.000
    O752    O    0.57234   0.14575   0.50016   1.000
    O753    O    0.48721   0.16477   0.51140   1.000
    O754    O    0.07235   0.14575   0.50016   1.000
    O755    O    0.98721   0.16477   0.51140   1.000
    O756    O    0.57201   0.64574   0.50026   1.000
    O757    O    0.48689   0.66478   0.51150   1.000
    O758    O    0.07202   0.64574   0.50024   1.000
    O759    O    0.98689   0.66478   0.51150   1.000
    O760    O    0.98384   0.35508   0.53819   1.000
    O761    O    0.48386   0.35508   0.53819   1.000
    O762    O    0.48354   0.85507   0.53824   1.000
    O763    O    0.98353   0.85507   0.53824   1.000
    O764    O    0.88945   0.18536   0.52079   1.000
    O765    O    0.80128   0.20251   0.52619   1.000
    O766    O    0.38946   0.18536   0.52079   1.000
    O767    O    0.30129   0.20251   0.52619   1.000
    O768    O    0.38915   0.68538   0.52088   1.000
    O769    O    0.30098   0.70254   0.52629   1.000
    O770    O    0.88914   0.68539   0.52088   1.000
    O771    O    0.80097   0.70254   0.52629   1.000
    O772    O    0.46401   0.18855   0.56900   1.000
    O773    O    0.96400   0.18855   0.56900   1.000
    O774    O    0.46374   0.68857   0.56908   1.000
    O775    O    0.96373   0.68857   0.56908   1.000
    O776    O    0.23386   0.31514   0.55819   1.000
    O777    O    0.14913   0.33370   0.56960   1.000
    O778    O    0.73385   0.31514   0.55819   1.000
    O779    O    0.64912   0.33370   0.56960   1.000
    O780    O    0.23356   0.81514   0.55824   1.000
    O781    O    0.14883   0.83368   0.56966   1.000
    O782    O    0.73355   0.81514   0.55824   1.000
    O783    O    0.64882   0.83368   0.56966   1.000
    O784    O    0.55178   0.35398   0.57898   1.000
    O785    O    0.46378   0.37138   0.58395   1.000
    O786    O    0.05178   0.35398   0.57898   1.000
    O787    O    0.96376   0.37138   0.58395   1.000
    O788    O    0.55147   0.85396   0.57903   1.000
    O789    O    0.46345   0.87134   0.58399   1.000
    O790    O    0.05147   0.85396   0.57903   1.000
    O791    O    0.96344   0.87134   0.58399   1.000
    O792    O    0.12153   0.35320   0.62206   1.000
    O793    O    0.62152   0.35320   0.62206   1.000
    O794    O    0.12127   0.85317   0.62213   1.000
    O795    O    0.62125   0.85317   0.62213   1.000
    O796    O    0.54697   0.20231   0.60860   1.000
    O797    O    0.44354   0.22187   0.61887   1.000
    O798    O    0.46514   0.16961   0.62467   1.000
    O799    O    0.04697   0.20231   0.60860   1.000
    O800    O    0.94353   0.22187   0.61887   1.000
    O801    O    0.96513   0.16961   0.62467   1.000
    O802    O    0.04674   0.70233   0.60865   1.000
    O803    O    0.94330   0.72190   0.61896   1.000
    O804    O    0.96489   0.66964   0.62472   1.000
    O805    O    0.54674   0.70233   0.60865   1.000
    O806    O    0.44332   0.72190   0.61896   1.000
    O807    O    0.46490   0.66964   0.62472   1.000
    O808    O    0.57366   0.09952   0.63002   1.000
    O809    O    0.07367   0.09952   0.63002   1.000
    O810    O    0.57337   0.59953   0.63003   1.000
    O811    O    0.07339   0.59953   0.63003   1.000
    O812    O    0.98939   0.11940   0.64173   1.000
    O813    O    0.01989   0.07593   0.65610   1.000
    O814    O    0.48939   0.11940   0.64173   1.000
    O815    O    0.51988   0.07593   0.65610   1.000
    O816    O    0.98912   0.61942   0.64176   1.000
    O817    O    0.01960   0.57594   0.65612   1.000
    O818    O    0.48912   0.61942   0.64176   1.000
    O819    O    0.51958   0.57594   0.65612   1.000
    O820    O    0.89322   0.13960   0.65695   1.000
    O821    O    0.39323   0.13960   0.65695   1.000
    O822    O    0.89296   0.63963   0.65695   1.000
    O823    O    0.39297   0.63963   0.65698   1.000
    O824    O    0.69011   0.36159   0.66214   1.000
    O825    O    0.59331   0.36409   0.67312   1.000
    O826    O    0.19012   0.36159   0.66214   1.000
    O827    O    0.09332   0.36409   0.67312   1.000
    O828    O    0.18990   0.86156   0.66219   1.000
    O829    O    0.09312   0.86402   0.67320   1.000
    O830    O    0.68989   0.86156   0.66219   1.000
    O831    O    0.59311   0.86402   0.67320   1.000
    O832    O    0.54156   0.03763   0.67188   1.000
    O833    O    0.45428   0.05216   0.68575   1.000
    O834    O    0.04157   0.03763   0.67188   1.000
    O835    O    0.95428   0.05216   0.68579   1.000
    O836    O    0.04124   0.53763   0.67186   1.000
    O837    O    0.95397   0.55217   0.68575   1.000
    O838    O    0.54123   0.53763   0.67186   1.000
    O839    O    0.45397   0.55217   0.68575   1.000
    O840    O    0.80705   0.65550   0.67221   1.000
    O841    O    0.82743   0.61582   0.68588   1.000
    O842    O    0.80731   0.15547   0.67221   1.000
    O843    O    0.82771   0.11579   0.68586   1.000
    O844    O    0.30732   0.15546   0.67221   1.000
    O845    O    0.32772   0.11579   0.68586   1.000
    O846    O    0.30706   0.65550   0.67224   1.000
    O847    O    0.32744   0.61582   0.68591   1.000
    O848    O    0.85827   0.07182   0.70034   1.000
    O849    O    0.77466   0.09172   0.71181   1.000
    O850    O    0.35828   0.07182   0.70030   1.000
    O851    O    0.27467   0.09172   0.71181   1.000
    O852    O    0.85796   0.57184   0.70032   1.000
    O853    O    0.77436   0.59175   0.71183   1.000
    O854    O    0.35798   0.57184   0.70032   1.000
    O855    O    0.27437   0.59175   0.71183   1.000
    O856    O    0.38853   0.02674   0.71741   1.000
    O857    O    0.38821   0.52677   0.71741   1.000
    O858    O    0.88819   0.52677   0.71741   1.000
    O859    O    0.88852   0.02674   0.71746   1.000
    O860    O    0.29899   0.29388   0.73506   1.000
    O861    O    0.45047   0.28765   0.74016   1.000
    O862    O    0.79898   0.29388   0.73506   1.000
    O863    O    0.95047   0.28765   0.74016   1.000
    O864    O    0.29879   0.79383   0.73512   1.000
    O865    O    0.45026   0.78761   0.74016   1.000
    O866    O    0.79878   0.79383   0.73512   1.000
    O867    O    0.95026   0.78761   0.74016   1.000
    O868    O    0.82288   0.99694   0.73831   1.000
    O869    O    0.92147   0.99101   0.74341   1.000
    O870    O    0.32289   0.99694   0.73831   1.000
    O871    O    0.42148   0.99101   0.74341   1.000
    O872    O    0.32254   0.49699   0.73831   1.000
    O873    O    0.42112   0.49103   0.74341   1.000
    O874    O    0.82253   0.49699   0.73831   1.000
    O875    O    0.92111   0.49103   0.74341   1.000
    O876    O    0.70100   0.96171   0.75987   1.000
    O877    O    0.20074   0.46178   0.75985   1.000
    O878    O    0.20101   0.96171   0.75987   1.000
    O879    O    0.70073   0.46178   0.75985   1.000
    O880    O    0.67076   0.25868   0.75649   1.000
    O881    O    0.17077   0.25868   0.75649   1.000
    O882    O    0.67056   0.75862   0.75654   1.000
    O883    O    0.17057   0.75862   0.75654   1.000
    O884    O    0.04960   0.95578   0.76497   1.000
    O885    O    0.54960   0.95578   0.76497   1.000
    O886    O    0.04931   0.45582   0.76495   1.000
    O887    O    0.54931   0.45582   0.76495   1.000
    O888    O    0.57204   0.75240   0.76158   1.000
    O889    O    0.07205   0.75240   0.76158   1.000
    O890    O    0.57225   0.25246   0.76158   1.000
    O891    O    0.07226   0.25246   0.76158   1.000
    O892    O    0.63825   0.22276   0.78229   1.000
    O893    O    0.13826   0.22276   0.78229   1.000
    O894    O    0.63800   0.72270   0.78235   1.000
    O895    O    0.13801   0.72270   0.78235   1.000
    O896    O    0.52488   0.15762   0.78784   1.000
    O897    O    0.02488   0.15762   0.78784   1.000
    O898    O    0.52455   0.65759   0.78790   1.000
    O899    O    0.02455   0.65759   0.78790   1.000
    O900    O    0.60839   0.17761   0.79930   1.000
    O901    O    0.70434   0.19736   0.81381   1.000
    O902    O    0.10840   0.17761   0.79930   1.000
    O903    O    0.20435   0.19736   0.81381   1.000
    O904    O    0.60808   0.67756   0.79935   1.000
    O905    O    0.70404   0.69730   0.81387   1.000
    O906    O    0.10809   0.67756   0.79935   1.000
    O907    O    0.20405   0.69730   0.81387   1.000
    O908    O    0.07811   0.13359   0.81374   1.000
    O909    O    0.57810   0.13359   0.81374   1.000
    O910    O    0.57771   0.63356   0.81383   1.000
    O911    O    0.07772   0.63356   0.81383   1.000
    O912    O    0.34333   0.38542   0.82706   1.000
    O913    O    0.84332   0.38542   0.82706   1.000
    O914    O    0.34340   0.88537   0.82726   1.000
    O915    O    0.84339   0.88537   0.82726   1.000
    O916    O    0.29161   0.21196   0.82766   1.000
    O917    O    0.79161   0.21196   0.82766   1.000
    O918    O    0.29132   0.71189   0.82771   1.000
    O919    O    0.79131   0.71188   0.82771   1.000
    O920    O    0.05793   0.09389   0.82742   1.000
    O921    O    0.55792   0.09389   0.82742   1.000
    O922    O    0.05747   0.59389   0.82749   1.000
    O923    O    0.55746   0.59389   0.82754   1.000
    O924    O    0.14378   0.10985   0.84264   1.000
    O925    O    0.64377   0.10985   0.84264   1.000
    O926    O    0.14334   0.60983   0.84276   1.000
    O927    O    0.64333   0.60983   0.84276   1.000
    O928    O    0.27016   0.17363   0.84343   1.000
    O929    O    0.77015   0.17363   0.84342   1.000
    O930    O    0.76979   0.67358   0.84350   1.000
    O931    O    0.26980   0.67358   0.84350   1.000
    O932    O    0.44013   0.38812   0.83800   1.000
    O933    O    0.94012   0.38812   0.83800   1.000
    O934    O    0.44019   0.88816   0.83822   1.000
    O935    O    0.94018   0.88816   0.83822   1.000
    O936    O    0.37151   0.39649   0.87809   1.000
    O937    O    0.87150   0.39649   0.87809   1.000
    O938    O    0.37149   0.89649   0.87829   1.000
    O939    O    0.87147   0.89649   0.87829   1.000
    O940    O    0.73988   0.13014   0.85780   1.000
    O941    O    0.71575   0.07997   0.87496   1.000
    O942    O    0.23989   0.13014   0.85780   1.000
    O943    O    0.21576   0.07997   0.87496   1.000
    O944    O    0.23946   0.63011   0.85792   1.000
    O945    O    0.21532   0.57997   0.87512   1.000
    O946    O    0.73945   0.63011   0.85792   1.000
    O947    O    0.71531   0.57997   0.87512   1.000
    O948    O    0.82409   0.15007   0.86946   1.000
    O949    O    0.32410   0.15007   0.86946   1.000
    O950    O    0.82368   0.65003   0.86957   1.000
    O951    O    0.32369   0.65003   0.86957   1.000
    O952    O    0.19423   0.02775   0.88088   1.000
    O953    O    0.69422   0.02775   0.88088   1.000
    O954    O    0.19385   0.52775   0.88108   1.000
    O955    O    0.69384   0.52775   0.88108   1.000
    O956    O    0.79763   0.04739   0.89117   1.000
    O957    O    0.29764   0.04739   0.89117   1.000
    O958    O    0.79721   0.54742   0.89132   1.000
    O959    O    0.29722   0.54742   0.89132   1.000
    O960    O    0.21452   0.06119   0.93067   1.000
    O961    O    0.71451   0.06119   0.93067   1.000
    O962    O    0.71413   0.56123   0.93085   1.000
    O963    O    0.21414   0.56123   0.93085   1.000
    O964    O    0.71376   0.37834   0.91624   1.000
    O965    O    0.21377   0.37834   0.91624   1.000
    O966    O    0.71363   0.87836   0.91636   1.000
    O967    O    0.21364   0.87836   0.91636   1.000
    O968    O    0.30173   0.39578   0.92117   1.000
    O969    O    0.39902   0.41613   0.93053   1.000
    O970    O    0.80172   0.39578   0.92117   1.000
    O971    O    0.89901   0.41612   0.93053   1.000
    O972    O    0.30160   0.89579   0.92134   1.000
    O973    O    0.39887   0.91615   0.93076   1.000
    O974    O    0.80159   0.89579   0.92134   1.000
    O975    O    0.89886   0.91615   0.93076   1.000
    O976    O    0.73371   0.39478   0.96196   1.000
    O977    O    0.23372   0.39478   0.96196   1.000
    O978    O    0.23349   0.89479   0.96209   1.000
    O979    O    0.73348   0.89479   0.96209   1.000
    O980    O    0.98371   0.43474   0.94191   1.000
    O981    O    0.48371   0.43474   0.94191   1.000
    O982    O    0.98353   0.93476   0.94219   1.000
    O983    O    0.48353   0.93476   0.94219   1.000
    O984    O    0.55167   0.04727   0.97336   1.000
    O985    O    0.05168   0.04727   0.97336   1.000
    O986    O    0.55133   0.54735   0.97361   1.000
    O987    O    0.05134   0.54735   0.97361   1.000
    O988    O    0.13978   0.06447   0.97881   1.000
    O989    O    0.63977   0.06447   0.97881   1.000
    O990    O    0.63946   0.56454   0.97900   1.000
    O991    O    0.13947   0.56454   0.97900   1.000
    O992    O    0.28324   0.09343   0.20688   1.000
    O993    O    0.15858   0.15112   0.23427   1.000
    O994    O    0.28347   0.59332   0.20703   1.000
    O995    O    0.15852   0.65102   0.23442   1.000
    O996    O    0.78323   0.09343   0.20688   1.000
    O997    O    0.65856   0.15112   0.23427   1.000
    O998    O    0.78346   0.59332   0.20703   1.000
    O999    O    0.65851   0.65102   0.23442   1.000
    O1000   O    0.93646   0.09061   0.19589   1.000
    O1001   O    0.93668   0.59062   0.19608   1.000
    O1002   O    0.43646   0.09061   0.19589   1.000
    O1003   O    0.43668   0.59062   0.19608   1.000
    O1004   O    0.14388   0.96843   0.82329   1.000
    O1005   O    0.14361   0.46845   0.82338   1.000
    O1006   O    0.64386   0.96843   0.82329   1.000
    O1007   O    0.64360   0.46845   0.82338   1.000
    O1008   O    0.40843   0.09959   0.26532   1.000
    O1009   O    0.53375   0.15729   0.29272   1.000
    O1010   O    0.40846   0.59949   0.26544   1.000
    O1011   O    0.53350   0.65719   0.29283   1.000
    O1012   O    0.90842   0.09959   0.26532   1.000
    O1013   O    0.03375   0.15729   0.29272   1.000
    O1014   O    0.90844   0.59949   0.26544   1.000
    O1015   O    0.03350   0.65719   0.29283   1.000
    O1016   O    0.18699   0.15974   0.30374   1.000
    O1017   O    0.18671   0.65969   0.30382   1.000
    O1018   O    0.68698   0.15974   0.30374   1.000
    O1019   O    0.68670   0.65969   0.30382   1.000
    O1020   O    0.39334   0.28111   0.67666   1.000
    O1021   O    0.39313   0.78110   0.67674   1.000
    O1022   O    0.89333   0.28111   0.67666   1.000
    O1023   O    0.89312   0.78111   0.67674   1.000
    O1024   O    0.21664   0.40667   0.79296   1.000
    O1025   O    0.34156   0.34896   0.76558   1.000
    O1026   O    0.21677   0.90659   0.79307   1.000
    O1027   O    0.34149   0.84890   0.76571   1.000
    O1028   O    0.71662   0.40667   0.79296   1.000
    O1029   O    0.84155   0.34897   0.76558   1.000
    O1030   O    0.71676   0.90659   0.79307   1.000
    O1031   O    0.84148   0.84890   0.76571   1.000
    O1032   O    0.56343   0.40937   0.80390   1.000
    O1033   O    0.56355   0.90938   0.80404   1.000
    O1034   O    0.06343   0.40937   0.80390   1.000
    O1035   O    0.06355   0.90938   0.80404   1.000
    O1036   O    0.35650   0.53156   0.17661   1.000
    O1037   O    0.35618   0.03156   0.17665   1.000
    O1038   O    0.85649   0.53156   0.17661   1.000
    O1039   O    0.85617   0.03156   0.17667   1.000
    O1040   O    0.09163   0.40050   0.73455   1.000
    O1041   O    0.96655   0.34279   0.70717   1.000
    O1042   O    0.09164   0.90042   0.73462   1.000
    O1043   O    0.96636   0.84273   0.70726   1.000
    O1044   O    0.59162   0.40050   0.73455   1.000
    O1045   O    0.46655   0.34279   0.70717   1.000
    O1046   O    0.59163   0.90042   0.73462   1.000
    O1047   O    0.46636   0.84273   0.70726   1.000
    O1048   O    0.31336   0.34029   0.69620   1.000
    O1049   O    0.31315   0.84027   0.69625   1.000
    O1050   O    0.81335   0.34029   0.69620   1.000
    O1051   O    0.81313   0.84027   0.69625   1.000
    O1052   O    0.10703   0.21891   0.32326   1.000
    O1053   O    0.10674   0.71888   0.32332   1.000
    O1054   O    0.60702   0.21891   0.32326   1.000
    O1055   O    0.60673   0.71888   0.32332   1.000
loop_
    _geom_bond_atom_site_label_1
    _geom_bond_atom_site_label_2
    _geom_bond_distance
    _geom_bond_site_symmetry_2
    _ccdc_geom_bond_type
    C156   O480      0.69705      .   S
    C152   O480      0.69705      .   S
    C156   O481      0.69969  1_554   S
    C160   O481      0.69969      .   S
    C156   O482      0.54360  1_554   S
    C20    O482      0.54360      .   S
    C158   O483      0.69705      .   S
    C154   O483      0.69705      .   S
    C158   O484      0.69968  1_554   S
    C162   O484      0.69968      .   S
    C158   O485      0.54360  1_554   S
    C22    O485      0.54360      .   S
    C157   O486      0.69709      .   S
    C153   O486      0.69709      .   S
    C157   O487      0.69967  1_554   S
    C161   O487      0.69967      .   S
    C157   O488      0.54356  1_554   S
    C21    O488      0.54356      .   S
    C159   O489      0.69709      .   S
    C155   O489      0.69709      .   S
    C159   O490      0.69967  1_554   S
    C163   O490      0.69967      .   S
    C159   O491      0.54356  1_554   S
    C23    O491      0.54356      .   S
    C86    O492      0.54358      .   S
    C270   O492      0.54358  1_556   S
    C84    O493      0.54358      .   S
    C268   O493      0.54358  1_556   S
    C87    O494      0.54358      .   S
    C271   O494      0.54358  1_556   S
    C85    O495      0.54359      .   S
    C269   O495      0.54359  1_556   S
    C276   O496      0.69864      .   S
    C272   O496      0.69864      .   S
    C276   O497      0.54393      .   S
    C88    O497      0.54393      .   S
    C276   O498      0.69617  1_554   S
    C280   O498      0.69617      .   S
    C278   O499      0.69864      .   S
    C274   O499      0.69864      .   S
    C278   O500      0.54393      .   S
    C90    O500      0.54393      .   S
    C278   O501      0.69617  1_554   S
    C282   O501      0.69617      .   S
    C277   O502      0.69863      .   S
    C273   O502      0.69863      .   S
    C277   O503      0.54395      .   S
    C89    O503      0.54395      .   S
    C277   O504      0.69611  1_554   S
    C281   O504      0.69611      .   S
    C279   O505      0.69864      .   S
    C275   O505      0.69864      .   S
    C279   O506      0.54395      .   S
    C91    O506      0.54395      .   S
    C279   O507      0.69611  1_554   S
    C283   O507      0.69611      .   S
    C274   O508      0.89096      .   S
    C378   O508      0.89096      .   S
    C274   O509      0.69969      .   S
    C270   O509      0.69969  1_556   S
    C272   O510      0.89096      .   S
    C376   O510      0.89096      .   S
    C272   O511      0.69969      .   S
    C268   O511      0.69969  1_556   S
    C275   O512      0.89083      .   S
    C379   O512      0.89083      .   S
    C275   O513      0.69970      .   S
    C271   O513      0.69970  1_556   S
    C273   O514      0.89083      .   S
    C377   O514      0.89083      .   S
    C273   O515      0.69969      .   S
    C269   O515      0.69969  1_556   S
    C168   O516      0.54371      .   S
    C30    O516      0.54371  1_655   S
    C168   O517      0.70005      .   S
    C148   O517      0.70005      .   S
    C168   O518      0.69613      .   S
    C164   O518      0.69613  1_556   S
    C170   O519      0.54359      .   S
    C28    O519      0.54359      .   S
    C170   O520      0.70005      .   S
    C150   O520      0.70005      .   S
    C170   O521      0.69613      .   S
    C166   O521      0.69613  1_556   S
    C171   O522      0.54364      .   S
    C29    O522      0.54364      .   S
    C171   O523      0.70003      .   S
    C151   O523      0.70003      .   S
    C171   O524      0.69693      .   S
    C167   O524      0.69693  1_556   S
    C169   O525      0.54376      .   S
    C31    O525      0.54376  1_655   S
    C169   O526      0.70004      .   S
    C149   O526      0.70004      .   S
    C169   O527      0.69693      .   S
    C165   O527      0.69693  1_556   S
    C152   O528      0.70099      .   S
    C148   O528      0.70099      .   S
    C152   O529      0.54506      .   S
    C16    O529      0.54506      .   S
    C154   O530      0.70100      .   S
    C150   O530      0.70100      .   S
    C154   O531      0.54505      .   S
    C18    O531      0.54505      .   S
    C153   O532      0.70096      .   S
    C149   O532      0.70096      .   S
    C153   O533      0.54503      .   S
    C17    O533      0.54503      .   S
    C155   O534      0.70097      .   S
    C151   O534      0.70097      .   S
    C155   O535      0.54503      .   S
    C19    O535      0.54503      .   S
    C150   O536      0.75195      .   S
    C146   O536      0.75195      .   S
    C148   O537      0.75162      .   S
    C144   O537      0.75162      .   S
    C149   O538      0.75191      .   S
    C145   O538      0.75191      .   S
    C151   O539      0.75191      .   S
    C147   O539      0.75191      .   S
    C376   O540      0.72858      .   S
    C452   O540      0.72858      .   S
    C376   O541      0.73602      .   S
    C444   O541      0.73602      .   S
    C376   O542      0.88793      .   S
    C284   O542      0.88793      .   S
    C378   O543      0.72859      .   S
    C454   O543      0.72859      .   S
    C378   O544      0.73602      .   S
    C446   O544      0.73602      .   S
    C378   O545      0.88793      .   S
    C286   O545      0.88793      .   S
    C379   O546      0.72859      .   S
    C455   O546      0.72859      .   S
    C379   O547      0.73605      .   S
    C447   O547      0.73605      .   S
    C379   O548      0.88796      .   S
    C287   O548      0.88796      .   S
    C377   O549      0.72859      .   S
    C453   O549      0.72859      .   S
    C377   O550      0.73594      .   S
    C445   O550      0.73594      .   S
    C377   O551      0.88796      .   S
    C285   O551      0.88796      .   S
    C98    O552      0.54399      .   S
    C290   O552      0.54399      .   S
    C96    O553      0.54399      .   S
    C288   O553      0.54399      .   S
    C99    O554      0.54400      .   S
    C291   O554      0.54400      .   S
    C97    O555      0.54362      .   S
    C289   O555      0.54362      .   S
    C290   O556      0.70039      .   S
    C286   O556      0.70039      .   S
    C290   O557      0.69585      .   S
    C294   O557      0.69585      .   S
    C288   O558      0.70039      .   S
    C284   O558      0.70039      .   S
    C288   O559      0.69585      .   S
    C292   O559      0.69585      .   S
    C289   O560      0.70032      .   S
    C285   O560      0.70032      .   S
    C289   O561      0.69609      .   S
    C293   O561      0.69609      .   S
    C291   O562      0.70040      .   S
    C287   O562      0.70040      .   S
    C291   O563      0.69588      .   S
    C295   O563      0.69588      .   S
    C286   O564      0.69924      .   S
    C306   O564      0.69924      .   S
    C284   O565      0.69925      .   S
    C304   O565      0.69925      .   S
    C287   O566      0.69925      .   S
    C307   O566      0.69925      .   S
    C285   O567      0.69925      .   S
    C305   O567      0.69925      .   S
    C144   O568      0.63380      .   S
    C388   O568      0.63380      .   S
    C144   O569      0.64191      .   S
    C384   O569      0.64191      .   S
    C146   O570      0.63371      .   S
    C390   O570      0.63371      .   S
    C146   O571      0.64169      .   S
    C386   O571      0.64169      .   S
    C145   O572      0.63379      .   S
    C389   O572      0.63379      .   S
    C145   O573      0.64155      .   S
    C385   O573      0.64155      .   S
    C147   O574      0.63379      .   S
    C391   O574      0.63379      .   S
    C147   O575      0.64154      .   S
    C387   O575      0.64154      .   S
    C294   O576      0.54473      .   S
    C102   O576      0.54473      .   S
    C294   O577      0.70125      .   S
    C298   O577      0.70125      .   S
    C292   O578      0.54473      .   S
    C100   O578      0.54473      .   S
    C292   O579      0.70126      .   S
    C296   O579      0.70126      .   S
    C293   O580      0.54481      .   S
    C101   O580      0.54481      .   S
    C293   O581      0.70149      .   S
    C297   O581      0.70149      .   S
    C295   O582      0.54474      .   S
    C103   O582      0.54474      .   S
    C295   O583      0.70126      .   S
    C299   O583      0.70126      .   S
    C306   O584      0.54449      .   S
    C110   O584      0.54449      .   S
    C306   O585      0.69781      .   S
    C302   O585      0.69781      .   S
    C304   O586      0.54449      .   S
    C108   O586      0.54449      .   S
    C304   O587      0.69781      .   S
    C300   O587      0.69781      .   S
    C307   O588      0.54448      .   S
    C111   O588      0.54448      .   S
    C307   O589      0.69783      .   S
    C303   O589      0.69783      .   S
    C305   O590      0.54448      .   S
    C109   O590      0.54448      .   S
    C305   O591      0.69728      .   S
    C301   O591      0.69728      .   S
    C301   O592      0.70107      .   S
    C297   O592      0.70107      .   S
    C301   O593      0.54440      .   S
    C107   O593      0.54440      .   S
    C300   O594      0.70100      .   S
    C296   O594      0.70100      .   S
    C300   O595      0.54403      .   S
    C106   O595      0.54403      .   S
    C302   O596      0.70100      .   S
    C298   O596      0.70100      .   S
    C302   O597      0.54414      .   S
    C104   O597      0.54414  1_455   S
    C303   O598      0.70096      .   S
    C299   O598      0.70096      .   S
    C303   O599      0.54406      .   S
    C105   O599      0.54406  1_455   S
    C296   O600      0.75797      .   S
    C308   O600      0.75797      .   S
    C298   O601      0.75798      .   S
    C310   O601      0.75798      .   S
    C297   O602      0.75802      .   S
    C309   O602      0.75802      .   S
    C299   O603      0.75802      .   S
    C311   O603      0.75802      .   S
    C8     O604      1.15973      .   S
    C474   O604      1.15973      .   S
    C8     O605      1.16265      .   S
    C464   O605      1.16265      .   S
    C10    O606      1.15983      .   S
    C472   O606      1.15983  1_455   S
    C10    O607      1.16265      .   S
    C466   O607      1.16265      .   S
    C9     O608      1.15994      .   S
    C475   O608      1.15994      .   S
    C9     O609      1.16178      .   S
    C465   O609      1.16178      .   S
    C11    O610      1.16006      .   S
    C473   O610      1.16006  1_455   S
    C11    O611      1.16176      .   S
    C467   O611      1.16176      .   S
    C310   O612      0.63549      .   S
    C442   O612      0.63549      .   S
    C310   O613      0.63329      .   S
    C450   O613      0.63329      .   S
    C308   O614      0.63549      .   S
    C440   O614      0.63549      .   S
    C308   O615      0.63329      .   S
    C448   O615      0.63329      .   S
    C311   O616      0.63558      .   S
    C443   O616      0.63558      .   S
    C311   O617      0.63323      .   S
    C451   O617      0.63323      .   S
    C309   O618      0.63558      .   S
    C441   O618      0.63558      .   S
    C309   O619      0.63323      .   S
    C449   O619      0.63323      .   S
    C440   O620      1.16230      .   S
    C14    O620      1.16230      .   S
    C442   O621      1.16239  1_655   S
    C12    O621      1.16239      .   S
    C441   O622      1.16216      .   S
    C15    O622      1.16216      .   S
    C443   O623      1.16224  1_655   S
    C13    O623      1.16224      .   S
    C475   O624      0.63297      .   S
    C366   O624      0.63297      .   S
    C474   O625      0.63320      .   S
    C367   O625      0.63320  1_565   S
    C473   O626      0.63328      .   S
    C364   O626      0.63328      .   S
    C472   O627      0.63320      .   S
    C365   O627      0.63320  1_565   S
    C448   O628      1.15895      .   S
    C12    O628      1.15895      .   S
    C450   O629      1.15895      .   S
    C14    O629      1.15895      .   S
    C449   O630      1.15901      .   S
    C13    O630      1.15901      .   S
    C451   O631      1.15901      .   S
    C15    O631      1.15901      .   S
    C464   O632      0.63555      .   S
    C365   O632      0.63555  1_565   S
    C466   O633      0.63556      .   S
    C367   O633      0.63556  1_565   S
    C465   O634      0.63548      .   S
    C364   O634      0.63548      .   S
    C467   O635      0.63534      .   S
    C366   O635      0.63534      .   S
    C366   O636      0.75859      .   S
    C354   O636      0.75859      .   S
    C367   O637      0.75540      .   S
    C355   O637      0.75540      .   S
    C365   O638      0.75541      .   S
    C353   O638      0.75541      .   S
    C364   O639      0.75810      .   S
    C352   O639      0.75810      .   S
    C139   O640      0.54400      .   S
    C359   O640      0.54400      .   S
    C137   O641      0.54401      .   S
    C357   O641      0.54401      .   S
    C136   O642      0.54396      .   S
    C356   O642      0.54396      .   S
    C138   O643      0.54397      .   S
    C358   O643      0.54397      .   S
    C353   O644      0.70158      .   S
    C357   O644      0.70158      .   S
    C353   O645      0.70360      .   S
    C351   O645      0.70360  1_655   S
    C355   O646      0.70158      .   S
    C359   O646      0.70158      .   S
    C355   O647      0.70349      .   S
    C349   O647      0.70349      .   S
    C354   O648      0.70099      .   S
    C358   O648      0.70099      .   S
    C354   O649      0.70126      .   S
    C348   O649      0.70126      .   S
    C352   O650      0.70099      .   S
    C356   O650      0.70099      .   S
    C352   O651      0.70137      .   S
    C350   O651      0.70137  1_655   S
    C357   O652      0.69791      .   S
    C361   O652      0.69791      .   S
    C359   O653      0.69791      .   S
    C363   O653      0.69791      .   S
    C356   O654      0.69792      .   S
    C360   O654      0.69792      .   S
    C358   O655      0.69791      .   S
    C362   O655      0.69791      .   S
    C408   O656      0.64141      .   S
    C200   O656      0.64141      .   S
    C410   O657      0.64141      .   S
    C202   O657      0.64141      .   S
    C411   O658      0.64154      .   S
    C203   O658      0.64154      .   S
    C409   O659      0.64110      .   S
    C201   O659      0.64110      .   S
    C142   O660      0.54429      .   S
    C362   O660      0.54429      .   S
    C143   O661      0.54450      .   S
    C363   O661      0.54450      .   S
    C141   O662      0.54450      .   S
    C361   O662      0.54450      .   S
    C140   O663      0.54448      .   S
    C360   O663      0.54448      .   S
    C135   O664      0.54483      .   S
    C351   O664      0.54483      .   S
    C133   O665      0.54475      .   S
    C349   O665      0.54475      .   S
    C132   O666      0.54474      .   S
    C348   O666      0.54474      .   S
    C134   O667      0.54475      .   S
    C350   O667      0.54475      .   S
    C361   O668      0.69928      .   S
    C341   O668      0.69928      .   S
    C363   O669      0.69928      .   S
    C343   O669      0.69928      .   S
    C362   O670      0.69923      .   S
    C342   O670      0.69923      .   S
    C360   O671      0.69928      .   S
    C340   O671      0.69928      .   S
    C349   O672      0.69591      .   S
    C345   O672      0.69591      .   S
    C351   O673      0.69591      .   S
    C347   O673      0.69591      .   S
    C348   O674      0.69587      .   S
    C344   O674      0.69587      .   S
    C350   O675      0.69587      .   S
    C346   O675      0.69587      .   S
    C412   O676      0.63389      .   S
    C200   O676      0.63389      .   S
    C414   O677      0.63389      .   S
    C202   O677      0.63389      .   S
    C413   O678      0.63365      .   S
    C201   O678      0.63365      .   S
    C415   O679      0.63384      .   S
    C203   O679      0.63384      .   S
    C200   O680      0.75202      .   S
    C204   O680      0.75202      .   S
    C202   O681      0.75202      .   S
    C206   O681      0.75202      .   S
    C201   O682      0.75251      .   S
    C205   O682      0.75251      .   S
    C203   O683      0.75185      .   S
    C207   O683      0.75185      .   S
    C342   O684      0.70046      .   S
    C344   O684      0.70046      .   S
    C342   O685      0.88818      .   S
    C382   O685      0.88818      .   S
    C340   O686      0.70055      .   S
    C346   O686      0.70055  1_655   S
    C340   O687      0.88811      .   S
    C380   O687      0.88811      .   S
    C343   O688      0.70048      .   S
    C345   O688      0.70048      .   S
    C343   O689      0.88234      .   S
    C383   O689      0.88234      .   S
    C341   O690      0.70057      .   S
    C347   O690      0.70057  1_655   S
    C341   O691      0.88234      .   S
    C381   O691      0.88234      .   S
    C347   O692      0.54404      .   S
    C131   O692      0.54404      .   S
    C345   O693      0.54404      .   S
    C129   O693      0.54404      .   S
    C346   O694      0.54402      .   S
    C130   O694      0.54402      .   S
    C344   O695      0.54402      .   S
    C128   O695      0.54402      .   S
    C470   O696      0.73605      .   S
    C382   O696      0.73605      .   S
    C468   O697      0.73605      .   S
    C380   O697      0.73605      .   S
    C471   O698      0.73366      .   S
    C383   O698      0.73366      .   S
    C469   O699      0.73366      .   S
    C381   O699      0.73366      .   S
    C476   O700      0.72862      .   S
    C382   O700      0.72862      .   S
    C478   O701      0.72875      .   S
    C380   O701      0.72875  1_455   S
    C479   O702      0.72852      .   S
    C381   O702      0.72852  1_455   S
    C477   O703      0.72839      .   S
    C383   O703      0.72839      .   S
    C381   O704      0.90073      .   S
    C329   O704      0.90073      .   S
    C383   O705      0.90073      .   S
    C331   O705      0.90073      .   S
    C380   O706      0.89106      .   S
    C328   O706      0.89106      .   S
    C382   O707      0.89107      .   S
    C330   O707      0.89107      .   S
    C48    O708      0.54505      .   S
    C208   O708      0.54505      .   S
    C50    O709      0.54505      .   S
    C210   O709      0.54505      .   S
    C49    O710      0.54502      .   S
    C209   O710      0.54502      .   S
    C51    O711      0.54502      .   S
    C211   O711      0.54502      .   S
    C204   O712      0.70100      .   S
    C210   O712      0.70100      .   S
    C204   O713      0.70006      .   S
    C224   O713      0.70006      .   S
    C206   O714      0.70111      .   S
    C208   O714      0.70111  1_455   S
    C206   O715      0.70007      .   S
    C226   O715      0.70007      .   S
    C205   O716      0.70099      .   S
    C211   O716      0.70099      .   S
    C205   O717      0.70007      .   S
    C225   O717      0.70007      .   S
    C207   O718      0.70111      .   S
    C209   O718      0.70111  1_455   S
    C207   O719      0.70006      .   S
    C227   O719      0.70006      .   S
    C208   O720      0.69714      .   S
    C212   O720      0.69714      .   S
    C210   O721      0.69714      .   S
    C214   O721      0.69714      .   S
    C209   O722      0.69709      .   S
    C213   O722      0.69709      .   S
    C211   O723      0.69709      .   S
    C215   O723      0.69709      .   S
    C62    O724      0.54362      .   S
    C226   O724      0.54362      .   S
    C60    O725      0.54362      .   S
    C224   O725      0.54362      .   S
    C61    O726      0.54362      .   S
    C225   O726      0.54362      .   S
    C63    O727      0.54362      .   S
    C227   O727      0.54362      .   S
    C224   O728      0.69622      .   S
    C220   O728      0.69622      .   S
    C226   O729      0.69622      .   S
    C222   O729      0.69622      .   S
    C225   O730      0.69628      .   S
    C221   O730      0.69628      .   S
    C227   O731      0.69628      .   S
    C223   O731      0.69628      .   S
    C122   O732      0.54392      .   S
    C334   O732      0.54392      .   S
    C120   O733      0.54392      .   S
    C332   O733      0.54392      .   S
    C123   O734      0.54388      .   S
    C335   O734      0.54388      .   S
    C121   O735      0.54388      .   S
    C333   O735      0.54388      .   S
    C330   O736      0.69866      .   S
    C334   O736      0.69866      .   S
    C330   O737      0.69963      .   S
    C324   O737      0.69963      .   S
    C328   O738      0.69866      .   S
    C332   O738      0.69866      .   S
    C328   O739      0.69972      .   S
    C326   O739      0.69972  1_655   S
    C331   O740      0.69864      .   S
    C335   O740      0.69864      .   S
    C331   O741      0.69971      .   S
    C325   O741      0.69971      .   S
    C329   O742      0.69864      .   S
    C333   O742      0.69864      .   S
    C329   O743      0.69980      .   S
    C327   O743      0.69980  1_655   S
    C334   O744      0.69635      .   S
    C338   O744      0.69635      .   S
    C332   O745      0.69636      .   S
    C336   O745      0.69636      .   S
    C333   O746      0.69634      .   S
    C337   O746      0.69634      .   S
    C335   O747      0.69634      .   S
    C339   O747      0.69634      .   S
    C116   O748      0.54368      .   S
    C324   O748      0.54368      .   S
    C118   O749      0.54368      .   S
    C326   O749      0.54368      .   S
    C117   O750      0.54375      .   S
    C325   O750      0.54375      .   S
    C119   O751      0.54374      .   S
    C327   O751      0.54374      .   S
    C214   O752      0.54374      .   S
    C54    O752      0.54374      .   S
    C214   O753      0.69972      .   S
    C216   O753      0.69972      .   S
    C212   O754      0.54374      .   S
    C52    O754      0.54374      .   S
    C212   O755      0.69980  1_455   S
    C218   O755      0.69980      .   S
    C215   O756      0.54371      .   S
    C55    O756      0.54371      .   S
    C215   O757      0.69970      .   S
    C217   O757      0.69970      .   S
    C213   O758      0.54349      .   S
    C53    O758      0.54349      .   S
    C213   O759      0.69980  1_455   S
    C219   O759      0.69980      .   S
    C326   O760      0.69717      .   S
    C322   O760      0.69717      .   S
    C324   O761      0.69717      .   S
    C320   O761      0.69717      .   S
    C325   O762      0.69628      .   S
    C321   O762      0.69628      .   S
    C327   O763      0.69628      .   S
    C323   O763      0.69628      .   S
    C222   O764      0.69867      .   S
    C218   O764      0.69867      .   S
    C222   O765      0.54395      .   S
    C58    O765      0.54395      .   S
    C220   O766      0.69866      .   S
    C216   O766      0.69866      .   S
    C220   O767      0.54395      .   S
    C56    O767      0.54395      .   S
    C221   O768      0.69866      .   S
    C217   O768      0.69866      .   S
    C221   O769      0.54395      .   S
    C57    O769      0.54395      .   S
    C223   O770      0.69865      .   S
    C219   O770      0.69865      .   S
    C223   O771      0.54395      .   S
    C59    O771      0.54395      .   S
    C216   O772      0.89120      .   S
    C372   O772      0.89120      .   S
    C218   O773      0.89120      .   S
    C374   O773      0.89120      .   S
    C217   O774      0.89109      .   S
    C373   O774      0.89109      .   S
    C219   O775      0.89109      .   S
    C375   O775      0.89109      .   S
    C336   O776      0.54359      .   S
    C124   O776      0.54359      .   S
    C336   O777      0.69999      .   S
    C316   O777      0.69999      .   S
    C338   O778      0.54359      .   S
    C126   O778      0.54359      .   S
    C338   O779      0.69999      .   S
    C318   O779      0.69999      .   S
    C337   O780      0.54363      .   S
    C125   O780      0.54363      .   S
    C337   O781      0.70007      .   S
    C317   O781      0.70007      .   S
    C339   O782      0.54363      .   S
    C127   O782      0.54363      .   S
    C339   O783      0.70008      .   S
    C319   O783      0.70008      .   S
    C320   O784      0.70099      .   S
    C318   O784      0.70099      .   S
    C320   O785      0.54512      .   S
    C112   O785      0.54512      .   S
    C322   O786      0.70110  1_655   S
    C316   O786      0.70110      .   S
    C322   O787      0.54511      .   S
    C114   O787      0.54511      .   S
    C321   O788      0.70135      .   S
    C319   O788      0.70135      .   S
    C321   O789      0.54555      .   S
    C113   O789      0.54555      .   S
    C323   O790      0.70147  1_655   S
    C317   O790      0.70147      .   S
    C323   O791      0.54555      .   S
    C115   O791      0.54555      .   S
    C316   O792      0.75191      .   S
    C312   O792      0.75191      .   S
    C318   O793      0.75191      .   S
    C314   O793      0.75191      .   S
    C317   O794      0.75165      .   S
    C313   O794      0.75165      .   S
    C319   O795      0.75165      .   S
    C315   O795      0.75165      .   S
    C372   O796      0.72860      .   S
    C430   O796      0.72860      .   S
    C372   O797      0.73607      .   S
    C420   O797      0.73607      .   S
    C372   O798      0.88828      .   S
    C228   O798      0.88828      .   S
    C374   O799      0.72872  1_655   S
    C428   O799      0.72872      .   S
    C374   O800      0.73607      .   S
    C422   O800      0.73607      .   S
    C374   O801      0.88828      .   S
    C230   O801      0.88828      .   S
    C375   O802      0.72873  1_655   S
    C429   O802      0.72873      .   S
    C375   O803      0.73604      .   S
    C423   O803      0.73604      .   S
    C375   O804      0.88811      .   S
    C231   O804      0.88811      .   S
    C373   O805      0.72860      .   S
    C431   O805      0.72860      .   S
    C373   O806      0.73604      .   S
    C421   O806      0.73604      .   S
    C373   O807      0.88811      .   S
    C229   O807      0.88811      .   S
    C66    O808      0.54401      .   S
    C234   O808      0.54401      .   S
    C64    O809      0.54401      .   S
    C232   O809      0.54401      .   S
    C67    O810      0.54404      .   S
    C235   O810      0.54404      .   S
    C65    O811      0.54403      .   S
    C233   O811      0.54403      .   S
    C232   O812      0.70057  1_455   S
    C230   O812      0.70057      .   S
    C232   O813      0.69591      .   S
    C236   O813      0.69591      .   S
    C234   O814      0.70048      .   S
    C228   O814      0.70048      .   S
    C234   O815      0.69592      .   S
    C238   O815      0.69592      .   S
    C233   O816      0.70056  1_455   S
    C231   O816      0.70056      .   S
    C233   O817      0.69590      .   S
    C237   O817      0.69590      .   S
    C235   O818      0.70047      .   S
    C229   O818      0.70047      .   S
    C235   O819      0.69590      .   S
    C239   O819      0.69590      .   S
    C230   O820      0.69924      .   S
    C250   O820      0.69924      .   S
    C228   O821      0.69925      .   S
    C248   O821      0.69925      .   S
    C231   O822      0.69892      .   S
    C251   O822      0.69892      .   S
    C229   O823      0.69926      .   S
    C249   O823      0.69926      .   S
    C314   O824      0.63383      .   S
    C462   O824      0.63383      .   S
    C314   O825      0.64155      .   S
    C458   O825      0.64155      .   S
    C312   O826      0.63383      .   S
    C460   O826      0.63383      .   S
    C312   O827      0.64155      .   S
    C456   O827      0.64155      .   S
    C313   O828      0.63397      .   S
    C461   O828      0.63397      .   S
    C313   O829      0.64165      .   S
    C457   O829      0.64165      .   S
    C315   O830      0.63396      .   S
    C463   O830      0.63396      .   S
    C315   O831      0.64165      .   S
    C459   O831      0.64165      .   S
    C238   O832      0.54475      .   S
    C70    O832      0.54475      .   S
    C238   O833      0.70081      .   S
    C240   O833      0.70081      .   S
    C236   O834      0.54475      .   S
    C68    O834      0.54475      .   S
    C236   O835      0.70137  1_455   S
    C242   O835      0.70137      .   S
    C237   O836      0.54475      .   S
    C69    O836      0.54475      .   S
    C237   O837      0.70089  1_455   S
    C243   O837      0.70089      .   S
    C239   O838      0.54475      .   S
    C71    O838      0.54475      .   S
    C239   O839      0.70078      .   S
    C241   O839      0.70078      .   S
    C251   O840      0.54443      .   S
    C79    O840      0.54443      .   S
    C251   O841      0.69836      .   S
    C247   O841      0.69836      .   S
    C250   O842      0.54450      .   S
    C78    O842      0.54450      .   S
    C250   O843      0.69769      .   S
    C246   O843      0.69769      .   S
    C248   O844      0.54449      .   S
    C76    O844      0.54449      .   S
    C248   O845      0.69771      .   S
    C244   O845      0.69771      .   S
    C249   O846      0.54449      .   S
    C77    O846      0.54449      .   S
    C249   O847      0.69794      .   S
    C245   O847      0.69794      .   S
    C246   O848      0.70104      .   S
    C242   O848      0.70104      .   S
    C246   O849      0.54418      .   S
    C74    O849      0.54418      .   S
    C244   O850      0.70092      .   S
    C240   O850      0.70092      .   S
    C244   O851      0.54418      .   S
    C72    O851      0.54418      .   S
    C247   O852      0.70086      .   S
    C243   O852      0.70086      .   S
    C247   O853      0.54395      .   S
    C75    O853      0.54395      .   S
    C245   O854      0.70086      .   S
    C241   O854      0.70086      .   S
    C245   O855      0.54396      .   S
    C73    O855      0.54396      .   S
    C240   O856      0.75885      .   S
    C252   O856      0.75885      .   S
    C241   O857      0.75875      .   S
    C253   O857      0.75875      .   S
    C243   O858      0.75875      .   S
    C255   O858      0.75875      .   S
    C242   O859      0.75827      .   S
    C254   O859      0.75827      .   S
    C4     O860      1.15912      .   S
    C400   O860      1.15912      .   S
    C4     O861      1.16213      .   S
    C394   O861      1.16213      .   S
    C6     O862      1.15911      .   S
    C402   O862      1.15911      .   S
    C6     O863      1.16223      .   S
    C392   O863      1.16223  1_455   S
    C5     O864      1.15901      .   S
    C401   O864      1.15901      .   S
    C5     O865      1.16163      .   S
    C395   O865      1.16163      .   S
    C7     O866      1.15901      .   S
    C403   O866      1.15901      .   S
    C7     O867      1.16172      .   S
    C393   O867      1.16172  1_455   S
    C254   O868      0.63556  1_545   S
    C419   O868      0.63556      .   S
    C254   O869      0.63321  1_545   S
    C427   O869      0.63321      .   S
    C252   O870      0.63556  1_545   S
    C417   O870      0.63556      .   S
    C252   O871      0.63320  1_545   S
    C425   O871      0.63320      .   S
    C253   O872      0.63548      .   S
    C416   O872      0.63548      .   S
    C253   O873      0.63326      .   S
    C424   O873      0.63326      .   S
    C255   O874      0.63548      .   S
    C418   O874      0.63548      .   S
    C255   O875      0.63326      .   S
    C426   O875      0.63326      .   S
    C419   O876      1.16249      .   S
    C3     O876      1.16249      .   S
    C416   O877      1.16177      .   S
    C0     O877      1.16177      .   S
    C417   O878      1.16250      .   S
    C1     O878      1.16250      .   S
    C418   O879      1.16177      .   S
    C2     O879      1.16177      .   S
    C402   O880      0.63306      .   S
    C198   O880      0.63306      .   S
    C400   O881      0.63305      .   S
    C196   O881      0.63305      .   S
    C403   O882      0.63326      .   S
    C199   O882      0.63326      .   S
    C401   O883      0.63327      .   S
    C197   O883      0.63327      .   S
    C427   O884      1.15972  1_655   S
    C1     O884      1.15972      .   S
    C425   O885      1.15962      .   S
    C3     O885      1.15962      .   S
    C426   O886      1.16002  1_655   S
    C0     O886      1.16002      .   S
    C424   O887      1.15992      .   S
    C2     O887      1.15992      .   S
    C395   O888      0.63576      .   S
    C199   O888      0.63576      .   S
    C393   O889      0.63576      .   S
    C197   O889      0.63576      .   S
    C394   O890      0.63553      .   S
    C198   O890      0.63553      .   S
    C392   O891      0.63552      .   S
    C196   O891      0.63552      .   S
    C198   O892      0.75824      .   S
    C186   O892      0.75824      .   S
    C196   O893      0.75824      .   S
    C184   O893      0.75824      .   S
    C199   O894      0.75801      .   S
    C187   O894      0.75801      .   S
    C197   O895      0.75801      .   S
    C185   O895      0.75801      .   S
    C40    O896      0.54397      .   S
    C190   O896      0.54397      .   S
    C42    O897      0.54408  1_655   S
    C188   O897      0.54408      .   S
    C41    O898      0.54398      .   S
    C191   O898      0.54398      .   S
    C43    O899      0.54409  1_655   S
    C189   O899      0.54409      .   S
    C186   O900      0.70095      .   S
    C190   O900      0.70095      .   S
    C186   O901      0.70124      .   S
    C182   O901      0.70124      .   S
    C184   O902      0.70095      .   S
    C188   O902      0.70095      .   S
    C184   O903      0.70124      .   S
    C180   O903      0.70124      .   S
    C187   O904      0.70097      .   S
    C191   O904      0.70097      .   S
    C187   O905      0.70122      .   S
    C183   O905      0.70122      .   S
    C185   O906      0.70097      .   S
    C189   O906      0.70097      .   S
    C185   O907      0.70122      .   S
    C181   O907      0.70122      .   S
    C188   O908      0.69784      .   S
    C192   O908      0.69784      .   S
    C190   O909      0.69783      .   S
    C194   O909      0.69783      .   S
    C191   O910      0.69785      .   S
    C195   O910      0.69785      .   S
    C189   O911      0.69786      .   S
    C193   O911      0.69786      .   S
    C432   O912      0.64156      .   S
    C256   O912      0.64156      .   S
    C434   O913      0.64156      .   S
    C258   O913      0.64156      .   S
    C433   O914      0.64167      .   S
    C257   O914      0.64167      .   S
    C435   O915      0.64166      .   S
    C259   O915      0.64166      .   S
    C36    O916      0.54474      .   S
    C180   O916      0.54474      .   S
    C38    O917      0.54473      .   S
    C182   O917      0.54473      .   S
    C37    O918      0.54474      .   S
    C181   O918      0.54474      .   S
    C39    O919      0.54474      .   S
    C183   O919      0.54474      .   S
    C44    O920      0.54447      .   S
    C192   O920      0.54447      .   S
    C46    O921      0.54448      .   S
    C194   O921      0.54448      .   S
    C45    O922      0.54439      .   S
    C193   O922      0.54439      .   S
    C47    O923      0.54450      .   S
    C195   O923      0.54450      .   S
    C192   O924      0.69923      .   S
    C172   O924      0.69923      .   S
    C194   O925      0.69923      .   S
    C174   O925      0.69923      .   S
    C193   O926      0.69926      .   S
    C173   O926      0.69926      .   S
    C195   O927      0.69926      .   S
    C175   O927      0.69926      .   S
    C180   O928      0.69591      .   S
    C176   O928      0.69591      .   S
    C182   O929      0.69584      .   S
    C178   O929      0.69584      .   S
    C183   O930      0.69584      .   S
    C179   O930      0.69584      .   S
    C181   O931      0.69584      .   S
    C177   O931      0.69584      .   S
    C436   O932      0.63378      .   S
    C256   O932      0.63378      .   S
    C438   O933      0.63378      .   S
    C258   O933      0.63378      .   S
    C437   O934      0.63371      .   S
    C257   O934      0.63371      .   S
    C439   O935      0.63372      .   S
    C259   O935      0.63372      .   S
    C256   O936      0.75189      .   S
    C260   O936      0.75189      .   S
    C258   O937      0.75188      .   S
    C262   O937      0.75188      .   S
    C257   O938      0.75198      .   S
    C261   O938      0.75198      .   S
    C259   O939      0.75198      .   S
    C263   O939      0.75198      .   S
    C174   O940      0.70041      .   S
    C178   O940      0.70041      .   S
    C174   O941      0.88795      .   S
    C370   O941      0.88795      .   S
    C172   O942      0.70040      .   S
    C176   O942      0.70040      .   S
    C172   O943      0.88795      .   S
    C368   O943      0.88795      .   S
    C173   O944      0.70041      .   S
    C177   O944      0.70041      .   S
    C173   O945      0.88794      .   S
    C369   O945      0.88794      .   S
    C175   O946      0.70041      .   S
    C179   O946      0.70041      .   S
    C175   O947      0.88794      .   S
    C371   O947      0.88794      .   S
    C178   O948      0.54406      .   S
    C34    O948      0.54406      .   S
    C176   O949      0.54400      .   S
    C32    O949      0.54400      .   S
    C179   O950      0.54402      .   S
    C35    O950      0.54402      .   S
    C177   O951      0.54402      .   S
    C33    O951      0.54402      .   S
    C396   O952      0.73605      .   S
    C368   O952      0.73605      .   S
    C398   O953      0.73605      .   S
    C370   O953      0.73605      .   S
    C397   O954      0.73602      .   S
    C369   O954      0.73602      .   S
    C399   O955      0.73602      .   S
    C371   O955      0.73602      .   S
    C406   O956      0.72860      .   S
    C370   O956      0.72860      .   S
    C404   O957      0.72859      .   S
    C368   O957      0.72859      .   S
    C407   O958      0.72859      .   S
    C371   O958      0.72859      .   S
    C405   O959      0.72859      .   S
    C369   O959      0.72859      .   S
    C368   O960      0.89081      .   S
    C160   O960      0.89081      .   S
    C370   O961      0.89081      .   S
    C162   O961      0.89081      .   S
    C371   O962      0.89096      .   S
    C163   O962      0.89096      .   S
    C369   O963      0.89096      .   S
    C161   O963      0.89096      .   S
    C82    O964      0.54504      .   S
    C266   O964      0.54504      .   S
    C80    O965      0.54504      .   S
    C264   O965      0.54504      .   S
    C83    O966      0.54506      .   S
    C267   O966      0.54506      .   S
    C81    O967      0.54505      .   S
    C265   O967      0.54505      .   S
    C260   O968      0.70098      .   S
    C264   O968      0.70098      .   S
    C260   O969      0.70000      .   S
    C280   O969      0.70000      .   S
    C262   O970      0.70098      .   S
    C266   O970      0.70098      .   S
    C262   O971      0.70001      .   S
    C282   O971      0.70001      .   S
    C261   O972      0.70102      .   S
    C265   O972      0.70102      .   S
    C261   O973      0.70005      .   S
    C281   O973      0.70005      .   S
    C263   O974      0.70102      .   S
    C267   O974      0.70102      .   S
    C263   O975      0.70006      .   S
    C283   O975      0.70006      .   S
    C266   O976      0.69697      .   S
    C270   O976      0.69697      .   S
    C264   O977      0.69697      .   S
    C268   O977      0.69697      .   S
    C265   O978      0.69703      .   S
    C269   O978      0.69703      .   S
    C267   O979      0.69703      .   S
    C271   O979      0.69703      .   S
    C92    O980      0.54369  1_455   S
    C282   O980      0.54369      .   S
    C94    O981      0.54358      .   S
    C280   O981      0.54358      .   S
    C93    O982      0.54371  1_455   S
    C283   O982      0.54371      .   S
    C95    O983      0.54360      .   S
    C281   O983      0.54360      .   S
    C26    O984      0.54392      .   S
    C166   O984      0.54392      .   S
    C24    O985      0.54393      .   S
    C164   O985      0.54393      .   S
    C27    O986      0.54345      .   S
    C167   O986      0.54345      .   S
    C25    O987      0.54345      .   S
    C165   O987      0.54345      .   S
    C160   O988      0.69861      .   S
    C164   O988      0.69861      .   S
    C162   O989      0.69861      .   S
    C166   O989      0.69861      .   S
    C163   O990      0.69830      .   S
    C167   O990      0.69830      .   S
    C161   O991      0.69831      .   S
    C165   O991      0.69831      .   S
    C384   O992      1.22108      .   S
    C8     O992      1.22108      .   S
    C384   O993      1.23719      .   S
    C12    O993      1.23719      .   S
    C385   O994      1.22047      .   S
    C9     O994      1.22047      .   S
    C385   O995      1.23734      .   S
    C13    O995      1.23734      .   S
    C386   O996      1.22108      .   S
    C10    O996      1.22108      .   S
    C386   O997      1.23719      .   S
    C14    O997      1.23719      .   S
    C387   O998      1.22047      .   S
    C11    O998      1.22047      .   S
    C387   O999      1.23734      .   S
    C15    O999      1.23734      .   S
    C388   O1000     1.18645  1_455   S
    C10    O1000     1.18645      .   S
    C389   O1001     1.18580  1_455   S
    C11    O1001     1.18580      .   S
    C390   O1002     1.18637      .   S
    C8     O1002     1.18637      .   S
    C391   O1003     1.18571      .   S
    C9     O1003     1.18571      .   S
    C396   O1004     1.25688  1_545   S
    C1     O1004     1.25688      .   S
    C397   O1005     1.25835      .   S
    C0     O1005     1.25835      .   S
    C398   O1006     1.25688  1_545   S
    C3     O1006     1.25688      .   S
    C399   O1007     1.25835      .   S
    C2     O1007     1.25835      .   S
    C408   O1008     1.23820      .   S
    C8     O1008     1.23820      .   S
    C408   O1009     1.21899      .   S
    C14    O1009     1.21899      .   S
    C409   O1010     1.23755      .   S
    C9     O1010     1.23755      .   S
    C409   O1011     1.21924      .   S
    C15    O1011     1.21924      .   S
    C410   O1012     1.23820      .   S
    C10    O1012     1.23820      .   S
    C410   O1013     1.21908  1_655   S
    C12    O1013     1.21908      .   S
    C411   O1014     1.23754      .   S
    C11    O1014     1.23754      .   S
    C411   O1015     1.21934  1_655   S
    C13    O1015     1.21934      .   S
    C412   O1016     1.18692      .   S
    C12    O1016     1.18692      .   S
    C413   O1017     1.18662      .   S
    C13    O1017     1.18662      .   S
    C414   O1018     1.18692      .   S
    C14    O1018     1.18692      .   S
    C415   O1019     1.18663      .   S
    C15    O1019     1.18663      .   S
    C420   O1020     1.25820      .   S
    C4     O1020     1.25820      .   S
    C421   O1021     1.25760      .   S
    C5     O1021     1.25760      .   S
    C422   O1022     1.25821      .   S
    C6     O1022     1.25821      .   S
    C423   O1023     1.25761      .   S
    C7     O1023     1.25761      .   S
    C432   O1024     1.22043      .   S
    C0     O1024     1.22043      .   S
    C432   O1025     1.23736      .   S
    C4     O1025     1.23736      .   S
    C433   O1026     1.22077      .   S
    C1     O1026     1.22077      .   S
    C433   O1027     1.23732      .   S
    C5     O1027     1.23732      .   S
    C434   O1028     1.22042      .   S
    C2     O1028     1.22042      .   S
    C434   O1029     1.23737      .   S
    C6     O1029     1.23737      .   S
    C435   O1030     1.22077      .   S
    C3     O1030     1.22077      .   S
    C435   O1031     1.23731      .   S
    C7     O1031     1.23731      .   S
    C436   O1032     1.18565      .   S
    C2     O1032     1.18565      .   S
    C437   O1033     1.18647      .   S
    C3     O1033     1.18647      .   S
    C438   O1034     1.18575  1_655   S
    C0     O1034     1.18575      .   S
    C439   O1035     1.18654  1_655   S
    C1     O1035     1.18654      .   S
    C444   O1036     1.25807      .   S
    C9     O1036     1.25807      .   S
    C445   O1037     1.25716  1_565   S
    C8     O1037     1.25716      .   S
    C446   O1038     1.25807      .   S
    C11    O1038     1.25807      .   S
    C447   O1039     1.25683  1_565   S
    C10    O1039     1.25683      .   S
    C456   O1040     1.23768      .   S
    C0     O1040     1.23768      .   S
    C456   O1041     1.21930  1_455   S
    C6     O1041     1.21930      .   S
    C457   O1042     1.23801      .   S
    C1     O1042     1.23801      .   S
    C457   O1043     1.21902  1_455   S
    C7     O1043     1.21902      .   S
    C458   O1044     1.23769      .   S
    C2     O1044     1.23769      .   S
    C458   O1045     1.21920      .   S
    C4     O1045     1.21920      .   S
    C459   O1046     1.23801      .   S
    C3     O1046     1.23801      .   S
    C459   O1047     1.21893      .   S
    C5     O1047     1.21893      .   S
    C460   O1048     1.18659      .   S
    C4     O1048     1.18659      .   S
    C461   O1049     1.18686      .   S
    C5     O1049     1.18686      .   S
    C462   O1050     1.18659      .   S
    C6     O1050     1.18659      .   S
    C463   O1051     1.18685      .   S
    C7     O1051     1.18685      .   S
    C468   O1052     1.25736      .   S
    C12    O1052     1.25736      .   S
    C469   O1053     1.25794      .   S
    C13    O1053     1.25794      .   S
    C470   O1054     1.25735      .   S
    C14    O1054     1.25735      .   S
    C471   O1055     1.25794      .   S
    C15    O1055     1.25794      .   S
