# CIF file generated by openbabel 2.4.90, see http://openbabel.sf.net
data_I
_chemical_name_common ''
_cell_length_a 13.728
_cell_length_b 14.03
_cell_length_c 16.134
_cell_angle_alpha 89.995
_cell_angle_beta 89.988
_cell_angle_gamma 90.083
_space_group_name_H-M_alt 'P 1'
_space_group_name_Hall 'P 1'
loop_
    _symmetry_equiv_pos_as_xyz
    x,y,z
loop_
    _atom_site_label
    _atom_site_type_symbol
    _atom_site_fract_x
    _atom_site_fract_y
    _atom_site_fract_z
    _atom_site_occupancy
    H0      H    0.28533   0.96656   0.81508   1.000
    H1      H    0.78533   0.96656   0.81500   1.000
    H2      H    0.27434   0.08229   0.69665   1.000
    H3      H    0.77433   0.08230   0.69665   1.000
    H4      H    0.47534   0.92512   0.80569   1.000
    H5      H    0.97534   0.92498   0.80557   1.000
    H6      H    0.46434   0.04086   0.68726   1.000
    H7      H    0.96435   0.04072   0.68715   1.000
    H8      H    0.46469   0.03336   0.31517   1.000
    H9      H    0.96469   0.03338   0.31517   1.000
    H10     H    0.47562   0.91764   0.19670   1.000
    H11     H    0.97561   0.91765   0.19675   1.000
    H12     H    0.27469   0.07488   0.30550   1.000
    H13     H    0.77467   0.07479   0.30558   1.000
    H14     H    0.28562   0.95915   0.18708   1.000
    H15     H    0.78561   0.95907   0.18715   1.000
    H16     H    0.21497   0.46606   0.68111   1.000
    H17     H    0.71497   0.46611   0.68106   1.000
    H18     H    0.22547   0.58186   0.79952   1.000
    H19     H    0.72547   0.58190   0.79948   1.000
    H20     H    0.02493   0.42549   0.69136   1.000
    H21     H    0.52492   0.42550   0.69136   1.000
    H22     H    0.03543   0.54129   0.80976   1.000
    H23     H    0.53542   0.54131   0.80970   1.000
    H24     H    0.03501   0.53396   0.18107   1.000
    H25     H    0.53497   0.53386   0.18098   1.000
    H26     H    0.02456   0.41813   0.29948   1.000
    H27     H    0.52453   0.41803   0.29940   1.000
    H28     H    0.22505   0.57450   0.19150   1.000
    H29     H    0.72502   0.57439   0.19143   1.000
    H30     H    0.21460   0.45865   0.30990   1.000
    H31     H    0.71457   0.45854   0.30983   1.000
    C32     C    0.13096   0.93893   0.81685   1.000
    C33     C    0.63095   0.93899   0.81690   1.000
    C34     C    0.21557   0.98323   0.78649   1.000
    C35     C    0.71556   0.98326   0.78651   1.000
    C36     C    0.20953   0.04734   0.72105   1.000
    C37     C    0.70952   0.04738   0.72107   1.000
    C38     C    0.04016   0.95999   0.78122   1.000
    C39     C    0.54014   0.96010   0.78130   1.000
    C40     C    0.03413   0.02409   0.71570   1.000
    C41     C    0.53410   0.02420   0.71586   1.000
    C42     C    0.11879   0.06802   0.68513   1.000
    C43     C    0.61877   0.06808   0.68518   1.000
    C44     C    0.11909   0.06098   0.31686   1.000
    C45     C    0.61907   0.06093   0.31689   1.000
    C46     C    0.03447   0.01669   0.28655   1.000
    C47     C    0.53444   0.01666   0.28656   1.000
    C48     C    0.04047   0.95258   0.22110   1.000
    C49     C    0.54045   0.95255   0.22112   1.000
    C50     C    0.20987   0.03989   0.28118   1.000
    C51     C    0.70986   0.03982   0.28124   1.000
    C52     C    0.21588   0.97579   0.21574   1.000
    C53     C    0.71587   0.97572   0.21580   1.000
    C54     C    0.13119   0.93189   0.18514   1.000
    C55     C    0.63118   0.93184   0.18517   1.000
    C56     C    0.36933   0.43894   0.67970   1.000
    C57     C    0.86932   0.43896   0.67960   1.000
    C58     C    0.28462   0.48300   0.70986   1.000
    C59     C    0.78461   0.48303   0.70983   1.000
    C60     C    0.29039   0.54712   0.77530   1.000
    C61     C    0.79039   0.54716   0.77527   1.000
    C62     C    0.46001   0.46029   0.71553   1.000
    C63     C    0.96000   0.46029   0.71552   1.000
    C64     C    0.46578   0.52443   0.78096   1.000
    C65     C    0.96577   0.52442   0.78090   1.000
    C66     C    0.38101   0.56809   0.81141   1.000
    C67     C    0.88100   0.56810   0.81139   1.000
    C68     C    0.38062   0.56101   0.17972   1.000
    C69     C    0.88061   0.56101   0.17970   1.000
    C70     C    0.46535   0.51694   0.20980   1.000
    C71     C    0.96535   0.51699   0.20985   1.000
    C72     C    0.45961   0.45279   0.27524   1.000
    C73     C    0.95961   0.45284   0.27529   1.000
    C74     C    0.28996   0.53968   0.21560   1.000
    C75     C    0.78994   0.53962   0.21558   1.000
    C76     C    0.28421   0.47553   0.28100   1.000
    C77     C    0.78419   0.47547   0.28100   1.000
    C78     C    0.36900   0.43184   0.31142   1.000
    C79     C    0.86899   0.43183   0.31142   1.000
loop_
    _geom_bond_atom_site_label_1
    _geom_bond_atom_site_label_2
    _geom_bond_distance
    _geom_bond_site_symmetry_2
    _ccdc_geom_bond_type
    C69    C71       1.40477      .   S
    C69    C75       1.40473      .   S
    C68    C70       1.40461      .   S
    C68    C74       1.40445      .   S
    H25    C70       1.08875      .   S
    H24    C71       1.08904  1_455   S
    C54    C52       1.40458      .   S
    C54    C48       1.40459      .   S
    C55    C53       1.40460      .   S
    C55    C49       1.40463      .   S
    H14    C52       1.08874      .   S
    H15    C53       1.08879      .   S
    H29    C75       1.08880      .   S
    H28    C74       1.08868      .   S
    H10    C49       1.08910      .   S
    H11    C48       1.08908  1_655   S
    C70    C72       1.38942      .   S
    C71    C73       1.38945      .   S
    C75    C77       1.38923      .   S
    C74    C76       1.38895      .   S
    C52    C50       1.38950  1_565   S
    C53    C51       1.38950  1_565   S
    C48    C46       1.38967  1_565   S
    C49    C47       1.38955  1_565   S
    C72    H27       1.08880      .   S
    C72    C78       1.40453      .   S
    C73    H26       1.08908  1_655   S
    C73    C79       1.40450      .   S
    C77    H31       1.08877      .   S
    C77    C79       1.40468      .   S
    C76    H30       1.08902      .   S
    C76    C78       1.40490      .   S
    C50    H12       1.08880      .   S
    C50    C44       1.40462      .   S
    C51    H13       1.08881      .   S
    C51    C45       1.40459      .   S
    C46    H9        1.08907  1_455   S
    C46    C44       1.40461      .   S
    C47    H8        1.08881      .   S
    C47    C45       1.40465      .   S
    C57    C59       1.40512      .   S
    C57    C63       1.40511      .   S
    C56    C58       1.40465      .   S
    C56    C62       1.40459      .   S
    H17    C59       1.08877      .   S
    H16    C58       1.08871      .   S
    C42    C40       1.40418      .   S
    C42    C36       1.40465      .   S
    C43    C41       1.40457      .   S
    C43    C37       1.40462      .   S
    H7     C40       1.08851  1_655   S
    H6     C41       1.08873      .   S
    H20    C63       1.08906  1_455   S
    H21    C62       1.08878      .   S
    H3     C37       1.08881      .   S
    H2     C36       1.08883      .   S
    C59    C61       1.38943      .   S
    C58    C60       1.38944      .   S
    C63    C65       1.38871      .   S
    C62    C64       1.38934      .   S
    C40    C38       1.39048  1_545   S
    C41    C39       1.38949  1_545   S
    C36    C34       1.38952  1_545   S
    C37    C35       1.38953  1_545   S
    C61    H19       1.08884      .   S
    C61    C67       1.40452      .   S
    C60    H18       1.08883      .   S
    C60    C66       1.40459      .   S
    C65    H22       1.08942  1_655   S
    C65    C67       1.40494      .   S
    C64    H23       1.08835      .   S
    C64    C66       1.40465      .   S
    C38    H5        1.08905  1_455   S
    C38    C32       1.40455      .   S
    C39    H4        1.08882      .   S
    C39    C33       1.40462      .   S
    C34    H0        1.08877      .   S
    C34    C32       1.40462      .   S
    C35    H1        1.08827      .   S
    C35    C33       1.40464      .   S
