# CIF file generated by openbabel 2.4.90, see http://openbabel.sf.net
data_I
_chemical_name_common ''
_cell_length_a 13.728
_cell_length_b 14.03
_cell_length_c 16.134
_cell_angle_alpha 89.995
_cell_angle_beta 89.988
_cell_angle_gamma 90.083
_space_group_name_H-M_alt 'P 1'
_space_group_name_Hall 'P 1'
loop_
    _symmetry_equiv_pos_as_xyz
    x,y,z
loop_
    _atom_site_label
    _atom_site_type_symbol
    _atom_site_fract_x
    _atom_site_fract_y
    _atom_site_fract_z
    _atom_site_occupancy
    Lv0     Lv   0.37519   0.50366   0.74544   1.000
    Lv1     Lv   0.12485   0.00362   0.75109   1.000
    Lv2     Lv   0.87519   0.50367   0.74542   1.000
    Lv3     Lv   0.12516   0.99629   0.25111   1.000
    Lv4     Lv   0.87478   0.49628   0.24546   1.000
    Lv5     Lv   0.37479   0.49628   0.24546   1.000
    Lv6     Lv   0.62484   0.00368   0.75114   1.000
    Lv7     Lv   0.62515   0.99624   0.25114   1.000
