# CIF file generated by openbabel 2.4.90, see http://openbabel.sf.net
data_I
_chemical_name_common ''
_cell_length_a 13.728
_cell_length_b 14.03
_cell_length_c 16.134
_cell_angle_alpha 89.995
_cell_angle_beta 89.988
_cell_angle_gamma 90.083
_space_group_name_H-M_alt 'P 1'
_space_group_name_Hall 'P 1'
loop_
    _symmetry_equiv_pos_as_xyz
    x,y,z
loop_
    _atom_site_label
    _atom_site_type_symbol
    _atom_site_fract_x
    _atom_site_fract_y
    _atom_site_fract_z
    _atom_site_occupancy
    C0      C    0.13738   0.86914   0.88601   1.000
    C1      C    0.63737   0.86917   0.88603   1.000
    C2      C    0.11253   0.13608   0.61467   1.000
    C3      C    0.61251   0.13611   0.61469   1.000
    C4      C    0.11268   0.13078   0.38601   1.000
    C5      C    0.61265   0.13076   0.38600   1.000
    C6      C    0.13744   0.86384   0.11467   1.000
    C7      C    0.63743   0.86382   0.11468   1.000
    C8      C    0.36300   0.36912   0.61056   1.000
    C9      C    0.86299   0.36912   0.61050   1.000
    C10     C    0.38717   0.63616   0.88188   1.000
    C11     C    0.88716   0.63616   0.88187   1.000
    C12     C    0.38694   0.63083   0.11057   1.000
    C13     C    0.88693   0.63083   0.11057   1.000
    C14     C    0.36287   0.36377   0.38189   1.000
    C15     C    0.86285   0.36375   0.38188   1.000
    O16     O    0.10758   0.30685   0.49707   1.000
    O17     O    0.60756   0.30685   0.49707   1.000
    O18     O    0.19269   0.17082   0.58752   1.000
    O19     O    0.69267   0.17083   0.58753   1.000
    O20     O    0.22206   0.84923   0.91374   1.000
    O21     O    0.72205   0.84923   0.91375   1.000
    O22     O    0.02793   0.15504   0.58630   1.000
    O23     O    0.52791   0.15506   0.58631   1.000
    O24     O    0.05727   0.83360   0.91246   1.000
    O25     O    0.55727   0.83361   0.91247   1.000
    O26     O    0.14243   0.69306   0.99707   1.000
    O27     O    0.64241   0.69306   0.99707   1.000
    O28     O    0.05729   0.82913   0.08752   1.000
    O29     O    0.55728   0.82912   0.08753   1.000
    O30     O    0.02800   0.15071   0.41375   1.000
    O31     O    0.52797   0.15071   0.41370   1.000
    O32     O    0.22205   0.84488   0.08628   1.000
    O33     O    0.72204   0.84487   0.08628   1.000
    O34     O    0.19278   0.16633   0.41244   1.000
    O35     O    0.69275   0.16631   0.41245   1.000
    O36     O    0.39254   0.80683   0.99949   1.000
    O37     O    0.89253   0.80682   0.99950   1.000
    O38     O    0.30705   0.67079   0.90899   1.000
    O39     O    0.80704   0.67079   0.90898   1.000
    O40     O    0.27831   0.34916   0.58274   1.000
    O41     O    0.77830   0.34916   0.58273   1.000
    O42     O    0.47179   0.65520   0.91030   1.000
    O43     O    0.97177   0.65519   0.91031   1.000
    O44     O    0.44307   0.33361   0.58421   1.000
    O45     O    0.94305   0.33361   0.58421   1.000
    O46     O    0.35746   0.19307   0.49951   1.000
    O47     O    0.85745   0.19306   0.49951   1.000
    O48     O    0.44298   0.32916   0.40898   1.000
    O49     O    0.94297   0.32915   0.40899   1.000
    O50     O    0.47163   0.65079   0.08273   1.000
    O51     O    0.97162   0.65079   0.08274   1.000
    O52     O    0.27824   0.34471   0.41032   1.000
    O53     O    0.77823   0.34468   0.41031   1.000
    O54     O    0.30688   0.66634   0.08424   1.000
    O55     O    0.80686   0.66633   0.08424   1.000
loop_
    _geom_bond_atom_site_label_1
    _geom_bond_atom_site_label_2
    _geom_bond_distance
    _geom_bond_site_symmetry_2
    _ccdc_geom_bond_type
    O50    C12       1.27702      .   S
    O51    C13       1.27700      .   S
    O55    C13       1.27995      .   S
    O54    C12       1.28000      .   S
    O32    C6        1.27684      .   S
    O33    C7        1.27688      .   S
    O28    C6        1.28003      .   S
    O29    C7        1.27997      .   S
    C15    O49       1.27996      .   S
    C15    O53       1.27690      .   S
    C14    O48       1.27992      .   S
    C14    O52       1.27685      .   S
    C5     O35       1.28015      .   S
    C5     O31       1.27681      .   S
    C4     O34       1.28002      .   S
    C4     O30       1.27696      .   S
    O41    C9        1.27675      .   S
    O40    C8        1.27705      .   S
    O45    C9        1.27974      .   S
    O44    C8        1.28000      .   S
    O22    C2        1.27681      .   S
    O23    C3        1.27681      .   S
    O18    C2        1.28001      .   S
    O19    C3        1.28000      .   S
    C11    O39       1.27998      .   S
    C11    O43       1.27693      .   S
    C10    O38       1.27996      .   S
    C10    O42       1.27687      .   S
    C0     O24       1.27998      .   S
    C0     O20       1.27697      .   S
    C1     O25       1.27998      .   S
    C1     O21       1.27699      .   S
