# CIF file generated by openbabel 2.4.90, see http://openbabel.sf.net
data_I
_chemical_name_common ''
_cell_length_a 13.728
_cell_length_b 14.03
_cell_length_c 16.134
_cell_angle_alpha 89.995
_cell_angle_beta 89.988
_cell_angle_gamma 90.083
_space_group_name_H-M_alt 'P 1'
_space_group_name_Hall 'P 1'
loop_
    _symmetry_equiv_pos_as_xyz
    x,y,z
loop_
    _atom_site_label
    _atom_site_type_symbol
    _atom_site_fract_x
    _atom_site_fract_y
    _atom_site_fract_z
    _atom_site_occupancy
    C0      C    0.13738   0.86914   0.88601   1.000
    C1      C    0.63737   0.86917   0.88603   1.000
    C2      C    0.11253   0.13608   0.61467   1.000
    C3      C    0.61251   0.13611   0.61469   1.000
    C4      C    0.11268   0.13078   0.38601   1.000
    C5      C    0.61265   0.13076   0.38600   1.000
    C6      C    0.13744   0.86384   0.11467   1.000
    C7      C    0.63743   0.86382   0.11468   1.000
    C8      C    0.36300   0.36912   0.61056   1.000
    C9      C    0.86299   0.36912   0.61050   1.000
    C10     C    0.38717   0.63616   0.88188   1.000
    C11     C    0.88716   0.63616   0.88187   1.000
    C12     C    0.38694   0.63083   0.11057   1.000
    C13     C    0.88693   0.63083   0.11057   1.000
    C14     C    0.36287   0.36377   0.38189   1.000
    C15     C    0.86285   0.36375   0.38188   1.000
