# CIF file generated by openbabel 2.4.90, see http://openbabel.sf.net
data_I
_chemical_name_common ''
_cell_length_a 13.569
_cell_length_b 13.571
_cell_length_c 23.187
_cell_angle_alpha 90.029
_cell_angle_beta 89.966
_cell_angle_gamma 90.014
_space_group_name_H-M_alt 'P 1'
_space_group_name_Hall 'P 1'
loop_
    _symmetry_equiv_pos_as_xyz
    x,y,z
loop_
    _atom_site_label
    _atom_site_type_symbol
    _atom_site_fract_x
    _atom_site_fract_y
    _atom_site_fract_z
    _atom_site_occupancy
    Zn0     Zn   0.86234   0.80046   0.44274   1.000
    Zn1     Zn   0.30052   0.63767   0.19272   1.000
    Zn2     Zn   0.69961   0.36237   0.69276   1.000
    Zn3     Zn   0.36235   0.69958   0.30725   1.000
    Zn4     Zn   0.63768   0.30054   0.80729   1.000
    Zn5     Zn   0.19945   0.13763   0.05728   1.000
    Zn6     Zn   0.80043   0.86235   0.55727   1.000
    Zn7     Zn   0.13762   0.19945   0.94274   1.000
loop_
    _geom_bond_atom_site_label_1
    _geom_bond_atom_site_label_2
    _geom_bond_distance
    _geom_bond_site_symmetry_2
    _ccdc_geom_bond_type
    Zn7    Zn5       2.90976  1_556   S
    Zn0    Zn6       2.90840      .   S
    Zn1    Zn3       2.90898      .   S
    Zn2    Zn4       2.90888      .   S
