# CIF file generated by openbabel 2.4.90, see http://openbabel.sf.net
data_I
_chemical_name_common ''
_cell_length_a 13.569
_cell_length_b 13.571
_cell_length_c 23.187
_cell_angle_alpha 90.029
_cell_angle_beta 89.966
_cell_angle_gamma 90.014
_space_group_name_H-M_alt 'P 1'
_space_group_name_Hall 'P 1'
loop_
    _symmetry_equiv_pos_as_xyz
    x,y,z
loop_
    _atom_site_label
    _atom_site_type_symbol
    _atom_site_fract_x
    _atom_site_fract_y
    _atom_site_fract_z
    _atom_site_occupancy
    N0      N    0.17386   0.30130   0.73933   1.000
    N1      N    0.82625   0.69869   0.23930   1.000
    N2      N    0.80152   0.32615   0.48935   1.000
    N3      N    0.32610   0.80138   0.51068   1.000
    N4      N    0.19851   0.67372   0.98904   1.000
    N5      N    0.69849   0.82628   0.76068   1.000
    N6      N    0.67371   0.19869   0.01066   1.000
    N7      N    0.30146   0.17386   0.26063   1.000
    Zr8     Zr   0.83138   0.83140   0.50001   1.000
    O9      O    0.78457   0.84410   0.58943   1.000
    O10     O    0.84408   0.78466   0.41057   1.000
    Zr11    Zr   0.16854   0.16854   0.00001   1.000
    O12     O    0.21534   0.15589   0.08942   1.000
    O13     O    0.15589   0.21528   0.91059   1.000
    Zr14    Zr   0.33143   0.66862   0.24999   1.000
    O15     O    0.28463   0.65591   0.16050   1.000
    O16     O    0.34408   0.71538   0.33941   1.000
    Zr17    Zr   0.66864   0.33145   0.75002   1.000
    O18     O    0.65592   0.28471   0.83934   1.000
    O19     O    0.71545   0.34410   0.66061   1.000
    O20     O    0.82226   0.68716   0.50107   1.000
    O21     O    0.82420   0.97277   0.49404   1.000
    O22     O    0.68713   0.82224   0.49894   1.000
    O23     O    0.97273   0.82417   0.50598   1.000
    O24     O    0.67583   0.47285   0.75599   1.000
    O25     O    0.67774   0.18723   0.74896   1.000
    O26     O    0.52727   0.32419   0.74405   1.000
    O27     O    0.81287   0.32226   0.75109   1.000
    O28     O    0.47282   0.67587   0.24401   1.000
    O29     O    0.18721   0.67778   0.25105   1.000
    O30     O    0.32229   0.81286   0.24891   1.000
    O31     O    0.32421   0.52725   0.25594   1.000
    O32     O    0.17576   0.02714   0.99397   1.000
    O33     O    0.17768   0.31277   0.00100   1.000
    O34     O    0.02714   0.17581   0.00597   1.000
    O35     O    0.31276   0.17773   0.99894   1.000
loop_
    _geom_bond_atom_site_label_1
    _geom_bond_atom_site_label_2
    _geom_bond_distance
    _geom_bond_site_symmetry_2
    _ccdc_geom_bond_type
    Zr8    O9        2.17495      .   S
    N5     O9        4.14568      .   S
    Zr8    O10       2.17494      .   S
    N1     O10       4.14585      .   S
    Zr11   O12       2.17542      .   S
    N7     O12       4.14613      .   S
    Zr11   O13       2.17550  1_554   S
    N0     O13       4.14648      .   S
    Zr14   O15       2.17705      .   S
    N4     O15       4.15161  1_556   S
    Zr14   O16       2.17504      .   S
    N3     O16       4.14570      .   S
    Zr17   O18       2.17293      .   S
    N6     O18       4.14810  1_554   S
    Zr17   O19       2.17497      .   S
    N2     O19       4.14556      .   S
    Zr8    O20       1.96157      .   S
    N2     O20       4.91465      .   S
    Zr8    O21       1.92600      .   S
    N2     O21       4.80700  1_545   S
    Zr8    O22       1.96141      .   S
    N3     O22       4.91435      .   S
    Zr8    O23       1.92562      .   S
    N3     O23       4.80617  1_455   S
    Zr17   O24       1.92620      .   S
    N5     O24       4.80736      .   S
    Zr17   O25       1.96139      .   S
    N5     O25       4.91426  1_565   S
    Zr17   O26       1.92584      .   S
    N0     O26       4.80668      .   S
    Zr17   O27       1.96126      .   S
    N0     O27       4.91396  1_455   S
    Zr14   O28       1.92592      .   S
    N1     O28       4.80680      .   S
    Zr14   O29       1.96115      .   S
    N1     O29       4.91375  1_655   S
    Zr14   O30       1.96159      .   S
    N7     O30       4.91466  1_545   S
    Zr14   O31       1.92600      .   S
    N7     O31       4.80711      .   S
    N4     O32       4.80765  1_565   S
    Zr11   O32       1.92640  1_554   S
    N4     O33       4.91451  1_556   S
    Zr11   O33       1.96135      .   S
    Zr11   O34       1.92605      .   S
    N6     O34       4.80695  1_655   S
    Zr11   O35       1.96108  1_554   S
    N6     O35       4.91357  1_554   S
