# CIF file generated by openbabel 2.4.90, see http://openbabel.sf.net
data_I
_chemical_name_common ''
_cell_length_a 13.569
_cell_length_b 13.571
_cell_length_c 23.187
_cell_angle_alpha 90.029
_cell_angle_beta 89.966
_cell_angle_gamma 90.014
_space_group_name_H-M_alt 'P 1'
_space_group_name_Hall 'P 1'
loop_
    _symmetry_equiv_pos_as_xyz
    x,y,z
loop_
    _atom_site_label
    _atom_site_type_symbol
    _atom_site_fract_x
    _atom_site_fract_y
    _atom_site_fract_z
    _atom_site_occupancy
    N0      N    0.17386   0.30130   0.73933   1.000
    N1      N    0.82625   0.69869   0.23930   1.000
    N2      N    0.80152   0.32615   0.48935   1.000
    N3      N    0.32610   0.80138   0.51068   1.000
    N4      N    0.19851   0.67372   0.98904   1.000
    N5      N    0.69849   0.82628   0.76068   1.000
    N6      N    0.67371   0.19869   0.01066   1.000
    N7      N    0.30146   0.17386   0.26063   1.000
    Zr8     Zr   0.83138   0.83140   0.50001   1.000
    O9      O    0.81397   0.69367   0.51356   1.000
    O10     O    0.81929   0.97973   0.50701   1.000
    O11     O    0.78457   0.84410   0.58943   1.000
    O12     O    0.68062   0.83053   0.51144   1.000
    O13     O    0.96577   0.82908   0.51895   1.000
    O14     O    0.84408   0.78466   0.41057   1.000
    O15     O    0.82910   0.96580   0.48107   1.000
    O16     O    0.83056   0.68065   0.48858   1.000
    O17     O    0.97970   0.81927   0.49301   1.000
    O18     O    0.69365   0.81394   0.48645   1.000
    Zr19    Zr   0.16854   0.16854   0.00001   1.000
    O20     O    0.31927   0.16944   0.01143   1.000
    O21     O    0.18597   0.30626   0.01349   1.000
    O22     O    0.21534   0.15589   0.08942   1.000
    O23     O    0.03409   0.17091   0.01894   1.000
    O24     O    0.18066   0.02019   0.00694   1.000
    O25     O    0.02018   0.18071   0.99300   1.000
    O26     O    0.16939   0.31927   0.98851   1.000
    O27     O    0.17086   0.03410   0.98100   1.000
    O28     O    0.30626   0.18602   0.98645   1.000
    O29     O    0.15589   0.21528   0.91059   1.000
    Zr30    Zr   0.33143   0.66862   0.24999   1.000
    O31     O    0.28463   0.65591   0.16050   1.000
    O32     O    0.31399   0.80634   0.23642   1.000
    O33     O    0.31931   0.52029   0.24297   1.000
    O34     O    0.46587   0.67096   0.23104   1.000
    O35     O    0.18070   0.66948   0.23855   1.000
    O36     O    0.19371   0.68609   0.26354   1.000
    O37     O    0.32911   0.53422   0.26892   1.000
    O38     O    0.33058   0.81938   0.26140   1.000
    O39     O    0.47978   0.68078   0.25698   1.000
    O40     O    0.34408   0.71538   0.33941   1.000
    Zr41    Zr   0.66864   0.33145   0.75002   1.000
    O42     O    0.67092   0.46589   0.76896   1.000
    O43     O    0.66944   0.18072   0.76145   1.000
    O44     O    0.65592   0.28471   0.83934   1.000
    O45     O    0.80635   0.31397   0.76358   1.000
    O46     O    0.52030   0.31929   0.75702   1.000
    O47     O    0.71545   0.34410   0.66061   1.000
    O48     O    0.68074   0.47980   0.74302   1.000
    O49     O    0.68605   0.19373   0.73646   1.000
    O50     O    0.81939   0.33055   0.73860   1.000
    O51     O    0.53424   0.32909   0.73108   1.000
loop_
    _geom_bond_atom_site_label_1
    _geom_bond_atom_site_label_2
    _geom_bond_distance
    _geom_bond_site_symmetry_2
    _ccdc_geom_bond_type
    Zr8    O9        1.91015      .   S
    N2     O9        5.02164      .   S
    Zr8    O10       2.02614      .   S
    N2     O10       4.72550  1_545   S
    Zr8    O11       2.17495      .   S
    N5     O11       4.14568      .   S
    Zr8    O12       2.06268      .   S
    N3     O12       4.82665      .   S
    Zr8    O13       1.87617      .   S
    N3     O13       4.90751  1_455   S
    Zr8    O14       2.17494      .   S
    N1     O14       4.14585      .   S
    Zr8    O15       1.87652      .   S
    N2     O15       4.90833  1_545   S
    Zr8    O16       2.06287      .   S
    N2     O16       4.82694      .   S
    Zr8    O17       2.02573      .   S
    N3     O17       4.72468  1_455   S
    Zr8    O18       1.91005      .   S
    N3     O18       5.02134      .   S
    Zr19   O20       2.06253      .   S
    N6     O20       4.82572      .   S
    Zr19   O21       1.90956      .   S
    N4     O21       5.02197  1_556   S
    Zr19   O22       2.17542      .   S
    N7     O22       4.14613      .   S
    Zr19   O23       1.87633      .   S
    N6     O23       4.90853  1_655   S
    Zr19   O24       2.02644      .   S
    N4     O24       4.72633  1_566   S
    Zr19   O25       2.02642  1_554   S
    N6     O25       4.72521  1_654   S
    Zr19   O26       2.06306  1_554   S
    N4     O26       4.82633      .   S
    Zr19   O27       1.87704  1_554   S
    N4     O27       4.90881  1_565   S
    Zr19   O28       1.90958  1_554   S
    N6     O28       5.02073  1_554   S
    Zr19   O29       2.17550  1_554   S
    N0     O29       4.14648      .   S
    Zr30   O31       2.17705      .   S
    N4     O31       4.15161  1_556   S
    Zr30   O32       1.91027      .   S
    N7     O32       5.02164  1_545   S
    Zr30   O33       2.02616      .   S
    N7     O33       4.72562      .   S
    Zr30   O34       1.87631      .   S
    N1     O34       4.90828      .   S
    Zr30   O35       2.06259      .   S
    N1     O35       4.82590  1_655   S
    Zr30   O36       1.90964      .   S
    N1     O36       5.02089  1_655   S
    Zr30   O37       1.87653      .   S
    N7     O37       4.90845      .   S
    Zr30   O38       2.06285      .   S
    N7     O38       4.82698  1_545   S
    Zr30   O39       2.02619      .   S
    N1     O39       4.72516      .   S
    Zr30   O40       2.17504      .   S
    N3     O40       4.14570      .   S
    Zr41   O42       1.87657      .   S
    N5     O42       4.90881      .   S
    Zr41   O43       2.06281      .   S
    N5     O43       4.82642  1_565   S
    Zr41   O44       2.17293      .   S
    N6     O44       4.14810  1_554   S
    Zr41   O45       1.90993      .   S
    N0     O45       5.02095  1_455   S
    Zr41   O46       2.02595      .   S
    N0     O46       4.72518      .   S
    Zr41   O47       2.17497      .   S
    N2     O47       4.14556      .   S
    Zr41   O48       2.02647      .   S
    N5     O48       4.72572      .   S
    Zr41   O49       1.90988      .   S
    N5     O49       5.02138  1_565   S
    Zr41   O50       2.06253      .   S
    N0     O50       4.82627  1_455   S
    Zr41   O51       1.87639      .   S
    N0     O51       4.90801      .   S
