# CIF file generated by openbabel 2.4.90, see http://openbabel.sf.net
data_I
_chemical_name_common ''
_cell_length_a 13.569
_cell_length_b 13.571
_cell_length_c 23.187
_cell_angle_alpha 90.029
_cell_angle_beta 89.966
_cell_angle_gamma 90.014
_space_group_name_H-M_alt 'P 1'
_space_group_name_Hall 'P 1'
loop_
    _symmetry_equiv_pos_as_xyz
    x,y,z
loop_
    _atom_site_label
    _atom_site_type_symbol
    _atom_site_fract_x
    _atom_site_fract_y
    _atom_site_fract_z
    _atom_site_occupancy
    Zr0     Zr   0.13762   0.19945   0.94274   1.000
    Zr1     Zr   0.86234   0.80046   0.44274   1.000
    Zr2     Zr   0.30052   0.63767   0.19272   1.000
    Zr3     Zr   0.69961   0.36237   0.69276   1.000
    Zr4     Zr   0.36235   0.69958   0.30725   1.000
    Zr5     Zr   0.63768   0.30054   0.80729   1.000
    Zr6     Zr   0.19945   0.13763   0.05728   1.000
    Zr7     Zr   0.80043   0.86235   0.55727   1.000
    O8      O    0.16854   0.16854   0.00001   1.000
    O9      O    0.83138   0.83140   0.50001   1.000
    O10     O    0.33143   0.66862   0.24999   1.000
    O11     O    0.66864   0.33145   0.75002   1.000
    N12     N    0.17386   0.30130   0.73933   1.000
    O13     O    0.14323   0.26202   0.82116   1.000
    O14     O    0.94407   0.29648   0.77713   1.000
    O15     O    0.97015   0.32964   0.72717   1.000
    O16     O    0.37196   0.30712   0.76401   1.000
    O17     O    0.39984   0.32672   0.71213   1.000
    N18     N    0.82625   0.69869   0.23930   1.000
    O19     O    0.85679   0.73793   0.32114   1.000
    O20     O    0.05599   0.70355   0.27710   1.000
    O21     O    0.02997   0.67035   0.22712   1.000
    O22     O    0.62812   0.69293   0.26398   1.000
    O23     O    0.60030   0.67329   0.21210   1.000
    N24     N    0.80152   0.32615   0.48935   1.000
    O25     O    0.76226   0.35675   0.57119   1.000
    O26     O    0.79655   0.55594   0.52712   1.000
    O27     O    0.82974   0.52989   0.47715   1.000
    O28     O    0.80719   0.12806   0.51402   1.000
    O29     O    0.82683   0.10020   0.46214   1.000
    N30     N    0.32610   0.80138   0.51068   1.000
    O31     O    0.35672   0.76214   0.42884   1.000
    O32     O    0.55591   0.79648   0.47289   1.000
    O33     O    0.52985   0.82966   0.52287   1.000
    O34     O    0.12802   0.80713   0.48601   1.000
    O35     O    0.10015   0.82676   0.53789   1.000
    N36     N    0.19851   0.67372   0.98904   1.000
    O37     O    0.23783   0.64319   0.07101   1.000
    O38     O    0.20341   0.44399   0.02698   1.000
    O39     O    0.17024   0.47000   0.97701   1.000
    O40     O    0.19278   0.87185   0.01388   1.000
    O41     O    0.17318   0.89966   0.96199   1.000
    N42     N    0.69849   0.82628   0.76068   1.000
    O43     O    0.73776   0.85681   0.67885   1.000
    O44     O    0.70345   0.05600   0.72290   1.000
    O45     O    0.67024   0.02999   0.77287   1.000
    O46     O    0.69284   0.62815   0.73601   1.000
    O47     O    0.67319   0.60033   0.78789   1.000
    N48     N    0.67371   0.19869   0.01066   1.000
    O49     O    0.89965   0.17327   0.03787   1.000
    O50     O    0.64320   0.23797   0.92865   1.000
    O51     O    0.44398   0.20351   0.97288   1.000
    O52     O    0.47000   0.17034   0.02285   1.000
    O53     O    0.87183   0.19287   0.98599   1.000
    N54     N    0.30146   0.17386   0.26063   1.000
    O55     O    0.29655   0.94407   0.22285   1.000
    O56     O    0.32973   0.97013   0.27282   1.000
    O57     O    0.26214   0.14324   0.17882   1.000
    O58     O    0.30719   0.37196   0.23595   1.000
    O59     O    0.32679   0.39982   0.28785   1.000
loop_
    _geom_bond_atom_site_label_1
    _geom_bond_atom_site_label_2
    _geom_bond_distance
    _geom_bond_site_symmetry_2
    _ccdc_geom_bond_type
    Zr0    O8        1.45488  1_556   S
    Zr6    O8        1.45488      .   S
    Zr1    O9        1.45420      .   S
    Zr7    O9        1.45420      .   S
    Zr2    O10       1.45449      .   S
    Zr4    O10       1.45449      .   S
    Zr3    O11       1.45444      .   S
    Zr5    O11       1.45444      .   S
    N12    O13       2.01420      .   S
    Zr0    O13       2.94542      .   S
    N12    O14       3.23909  1_455   S
    Zr5    O14       4.21575      .   S
    N12    O15       2.80536  1_455   S
    Zr3    O15       3.78341      .   S
    N12    O16       2.74971      .   S
    Zr5    O16       3.74417      .   S
    N12    O17       3.14899      .   S
    Zr3    O17       4.12044      .   S
    N18    O19       2.01404      .   S
    Zr1    O19       2.94504      .   S
    N18    O20       3.23925  1_655   S
    Zr4    O20       4.21621      .   S
    N18    O21       2.80497  1_655   S
    Zr2    O21       3.78243      .   S
    N18    O22       2.74947      .   S
    Zr4    O22       3.74375      .   S
    N18    O23       3.14928      .   S
    Zr2    O23       4.12114      .   S
    N24    O25       2.01379      .   S
    Zr3    O25       2.94481      .   S
    N24    O26       3.23937      .   S
    Zr7    O26       4.21662      .   S
    N24    O27       2.80569      .   S
    Zr1    O27       3.78370      .   S
    N24    O28       2.74988      .   S
    Zr7    O28       3.74441  1_565   S
    N24    O29       3.14910      .   S
    Zr1    O29       4.12074  1_565   S
    N30    O31       2.01385      .   S
    Zr4    O31       2.94493      .   S
    N30    O32       3.23930      .   S
    Zr1    O32       4.21617      .   S
    N30    O33       2.80559      .   S
    Zr7    O33       3.78345      .   S
    N30    O34       2.74943      .   S
    Zr1    O34       3.74371  1_655   S
    N30    O35       3.14871      .   S
    Zr7    O35       4.11993  1_655   S
    N36    O37       2.01762  1_556   S
    Zr2    O37       2.94895      .   S
    N36    O38       3.24051  1_556   S
    Zr6    O38       4.21727      .   S
    N36    O39       2.80480      .   S
    Zr0    O39       3.78224      .   S
    N36    O40       2.75059  1_556   S
    Zr6    O40       3.74528  1_545   S
    N36    O41       3.14893      .   S
    Zr0    O41       4.12164  1_545   S
    N42    O43       2.01387      .   S
    Zr7    O43       2.94502      .   S
    N42    O44       3.23947  1_565   S
    Zr3    O44       4.21667      .   S
    N42    O45       2.80526  1_565   S
    Zr5    O45       3.78290      .   S
    N42    O46       2.74978      .   S
    Zr3    O46       3.74439      .   S
    N42    O47       3.14947      .   S
    Zr5    O47       4.12158      .   S
    N48    O49       3.14950      .   S
    Zr6    O49       4.12174  1_455   S
    N48    O50       2.01824  1_554   S
    Zr5    O50       2.94072      .   S
    N48    O51       3.23919  1_554   S
    Zr0    O51       4.21606      .   S
    N48    O52       2.80484      .   S
    Zr6    O52       3.78246      .   S
    N48    O53       2.74930  1_554   S
    Zr0    O53       3.74374  1_455   S
    N54    O55       3.23948  1_545   S
    Zr2    O55       4.21642      .   S
    N54    O56       2.80576  1_545   S
    Zr4    O56       3.78398      .   S
    N54    O57       2.01393      .   S
    Zr6    O57       2.94524      .   S
    N54    O58       2.75005      .   S
    Zr2    O58       3.74427      .   S
    N54    O59       3.14925      .   S
    Zr4    O59       4.12087      .   S
