# CIF file generated by openbabel 2.4.90, see http://openbabel.sf.net
data_I
_chemical_name_common ''
_cell_length_a 23.442
_cell_length_b 23.974
_cell_length_c 14.059
_cell_angle_alpha 112.345
_cell_angle_beta 89.896
_cell_angle_gamma 118.644
_space_group_name_H-M_alt 'P 1'
_space_group_name_Hall 'P 1'
loop_
    _symmetry_equiv_pos_as_xyz
    x,y,z
loop_
    _atom_site_label
    _atom_site_type_symbol
    _atom_site_fract_x
    _atom_site_fract_y
    _atom_site_fract_z
    _atom_site_occupancy
    Zn0     Zn   0.16816   0.85875   0.75525   1.000
    Zn1     Zn   0.66818   0.35876   0.75523   1.000
    Zn2     Zn   0.66817   0.85872   0.75500   1.000
    Zn3     Zn   0.19290   0.36274   0.25987   1.000
    Zn4     Zn   0.19292   0.86277   0.25999   1.000
    Zn5     Zn   0.69292   0.36272   0.25989   1.000
    Zn6     Zn   0.69295   0.86275   0.26002   1.000
    H7      H    0.26889   0.22037   0.16551   1.000
    H8      H    0.26897   0.72043   0.16557   1.000
    H9      H    0.76896   0.22035   0.16550   1.000
    H10     H    0.76903   0.72041   0.16557   1.000
    H11     H    0.07780   0.10301   0.95457   1.000
    H12     H    0.07785   0.60305   0.95468   1.000
    H13     H    0.57783   0.10299   0.95465   1.000
    H14     H    0.57789   0.60303   0.95476   1.000
    H15     H    0.09935   0.00478   0.85817   1.000
    H16     H    0.09941   0.50483   0.85826   1.000
    H17     H    0.59937   0.00476   0.85820   1.000
    H18     H    0.59944   0.50480   0.85829   1.000
    H19     H    0.19883   0.28077   0.53428   1.000
    H20     H    0.19884   0.78075   0.53427   1.000
    H21     H    0.69883   0.28074   0.53422   1.000
    H22     H    0.69885   0.78072   0.53421   1.000
    H23     H    0.28103   0.49625   0.73598   1.000
    H24     H    0.28101   0.99623   0.73597   1.000
    H25     H    0.78103   0.49622   0.73593   1.000
    H26     H    0.78102   0.99620   0.73590   1.000
    H27     H    0.34653   0.48493   0.57036   1.000
    H28     H    0.34654   0.98493   0.57038   1.000
    H29     H    0.84655   0.48490   0.57033   1.000
    H30     H    0.84656   0.98490   0.57035   1.000
    H31     H    0.30814   0.37133   0.38340   1.000
    Zn32    Zn   0.16817   0.35880   0.75529   1.000
    H33     H    0.30819   0.87134   0.38352   1.000
    H34     H    0.80817   0.37130   0.38345   1.000
    H35     H    0.80821   0.87131   0.38348   1.000
    H36     H    0.26239   0.28827   0.38651   1.000
    H37     H    0.26241   0.78828   0.38650   1.000
    H38     H    0.76242   0.28824   0.38648   1.000
    H39     H    0.76245   0.78825   0.38647   1.000
    H40     H    0.31913   0.25033   0.47907   1.000
    H41     H    0.31912   0.75029   0.47904   1.000
    H42     H    0.81917   0.25032   0.47908   1.000
    H43     H    0.81916   0.75028   0.47905   1.000
    H44     H    0.42519   0.26324   0.54267   1.000
    H45     H    0.42516   0.76317   0.54265   1.000
    H46     H    0.92523   0.26326   0.54272   1.000
    H47     H    0.92520   0.76319   0.54270   1.000
    H48     H    0.03497   0.46274   0.52673   1.000
    H49     H    0.03500   0.96271   0.52684   1.000
    H50     H    0.53496   0.46272   0.52669   1.000
    H51     H    0.53498   0.96269   0.52680   1.000
    H52     H    0.42917   0.44977   0.46279   1.000
    H53     H    0.42921   0.94978   0.46288   1.000
    H54     H    0.92919   0.44977   0.46279   1.000
    H55     H    0.92923   0.94976   0.46288   1.000
    H56     H    0.04604   0.34206   0.62350   1.000
    H57     H    0.04600   0.84197   0.62352   1.000
    H58     H    0.54601   0.34203   0.62345   1.000
    H59     H    0.54597   0.84194   0.62348   1.000
    H60     H    0.09117   0.42585   0.62270   1.000
    H61     H    0.09116   0.92578   0.62280   1.000
    H62     H    0.59115   0.42582   0.62265   1.000
    H63     H    0.59113   0.92575   0.62275   1.000
    H64     H    0.15767   0.43671   0.47991   1.000
    H65     H    0.15768   0.93669   0.48004   1.000
    H66     H    0.65767   0.43668   0.47989   1.000
    H67     H    0.65768   0.93666   0.48003   1.000
    H68     H    0.07783   0.22312   0.27041   1.000
    H69     H    0.07786   0.72312   0.27040   1.000
    H70     H    0.57783   0.22308   0.27000   1.000
    H71     H    0.57786   0.72309   0.27042   1.000
    H72     H    0.00961   0.23018   0.43322   1.000
    H73     H    0.00960   0.73013   0.43321   1.000
    H74     H    0.50957   0.23015   0.43316   1.000
    H75     H    0.50957   0.73010   0.43310   1.000
    H76     H    0.31214   0.08685   0.00000   1.000
    H77     H    0.31222   0.58691   0.00000   1.000
    H78     H    0.81219   0.08682   0.00000   1.000
    H79     H    0.81227   0.58688   0.00000   1.000
    H80     H    0.34067   0.17201   0.13306   1.000
    H81     H    0.34076   0.67208   0.13309   1.000
    H82     H    0.84074   0.17198   0.13297   1.000
    H83     H    0.84082   0.67205   0.13300   1.000
    H84     H    0.45216   0.22062   0.66867   1.000
    H85     H    0.45218   0.72053   0.66866   1.000
    H86     H    0.95216   0.22061   0.66869   1.000
    H87     H    0.95218   0.72051   0.66869   1.000
    H88     H    0.02399   0.10104   0.45023   1.000
    H89     H    0.02400   0.60101   0.45000   1.000
    H90     H    0.52398   0.10102   0.45020   1.000
    H91     H    0.52398   0.60099   0.45004   1.000
    H92     H    0.40535   0.00492   0.35596   1.000
    H93     H    0.40535   0.50489   0.35581   1.000
    H94     H    0.90538   0.00492   0.35599   1.000
    H95     H    0.90538   0.50489   0.35582   1.000
    H96     H    0.08571   0.28493   0.04053   1.000
    H97     H    0.08573   0.78491   0.04063   1.000
    H98     H    0.58572   0.28489   0.04054   1.000
    H99     H    0.58575   0.78487   0.04064   1.000
    C100    C    0.77367   0.95006   0.66850   1.000
    C101    C    0.30669   0.44512   0.58813   1.000
    C102    C    0.30670   0.94511   0.58814   1.000
    C103    C    0.80670   0.44509   0.58809   1.000
    H104    H    0.21387   0.50062   0.24153   1.000
    H105    H    0.21386   0.00000   0.24157   1.000
    H106    H    0.71392   0.50058   0.24150   1.000
    H107    H    0.71391   0.00000   0.24154   1.000
    H108    H    0.13762   0.48869   0.07510   1.000
    H109    H    0.13761   0.98864   0.07507   1.000
    H110    H    0.63766   0.48865   0.07507   1.000
    H111    H    0.63766   0.98860   0.07505   1.000
    H112    H    0.06578   0.37484   0.88820   1.000
    H113    H    0.06579   0.87476   0.88827   1.000
    H114    H    0.56580   0.37479   0.88828   1.000
    H115    H    0.56582   0.87471   0.88827   1.000
    H116    H    0.03099   0.29184   0.89100   1.000
    H117    H    0.03101   0.79178   0.89112   1.000
    H118    H    0.53100   0.29180   0.89109   1.000
    H119    H    0.53102   0.79173   0.89114   1.000
    H120    H    0.43536   0.25117   0.97907   1.000
    H121    H    0.43532   0.75106   0.97890   1.000
    H122    H    0.93536   0.25119   0.97904   1.000
    H123    H    0.93531   0.75108   0.97889   1.000
    H124    H    0.33965   0.26106   0.03840   1.000
    H125    H    0.33960   0.76094   0.03824   1.000
    H126    H    0.83964   0.26105   0.03841   1.000
    H127    H    0.83959   0.76094   0.03823   1.000
    H128    H    0.42406   0.46161   0.02644   1.000
    H129    H    0.42411   0.96157   0.02647   1.000
    H130    H    0.92402   0.46162   0.02640   1.000
    H131    H    0.92406   0.96158   0.02650   1.000
    C132    C    0.37447   0.11958   0.54867   1.000
    C133    C    0.37448   0.61951   0.54864   1.000
    C134    C    0.87448   0.11957   0.54870   1.000
    C135    C    0.87449   0.61948   0.54867   1.000
    C136    C    0.44139   0.17300   0.59973   1.000
    H137    H    0.01942   0.45172   0.96682   1.000
    H138    H    0.01947   0.95168   0.96687   1.000
    H139    H    0.51946   0.45169   0.96600   1.000
    H140    H    0.51951   0.95165   0.96685   1.000
    H141    H    0.29396   0.33840   0.11867   1.000
    H142    H    0.29396   0.83835   0.11860   1.000
    H143    H    0.79393   0.33837   0.11866   1.000
    H144    H    0.79393   0.83832   0.11860   1.000
    H145    H    0.33002   0.42209   0.11802   1.000
    H146    H    0.33003   0.92204   0.11794   1.000
    H147    H    0.82997   0.42206   0.11802   1.000
    H148    H    0.82999   0.92202   0.11795   1.000
    H149    H    0.27553   0.43237   0.97377   1.000
    H150    H    0.27554   0.93232   0.97372   1.000
    H151    H    0.77552   0.43234   0.97372   1.000
    H152    H    0.77553   0.93230   0.97367   1.000
    H153    H    0.14694   0.21859   0.76469   1.000
    H154    H    0.14691   0.71855   0.76466   1.000
    H155    H    0.64693   0.21855   0.76466   1.000
    H156    H    0.64690   0.71852   0.76464   1.000
    H157    H    0.22175   0.22618   0.92830   1.000
    H158    H    0.22172   0.72613   0.92824   1.000
    H159    H    0.72171   0.22615   0.92830   1.000
    H160    H    0.72168   0.72610   0.92826   1.000
    H161    H    0.27712   0.09050   0.53722   1.000
    H162    H    0.27714   0.59043   0.53723   1.000
    H163    H    0.77712   0.09047   0.53723   1.000
    H164    H    0.77714   0.59039   0.53724   1.000
    H165    H    0.33349   0.17485   0.63990   1.000
    H166    H    0.33352   0.67475   0.63995   1.000
    H167    H    0.83349   0.17482   0.63990   1.000
    H168    H    0.83351   0.67472   0.63997   1.000
    C169    C    0.20526   0.49639   0.89786   1.000
    C170    C    0.20519   0.99632   0.89780   1.000
    C171    C    0.70529   0.49636   0.89782   1.000
    C172    C    0.70522   0.99629   0.89776   1.000
    C173    C    0.19544   0.05642   0.95712   1.000
    C174    C    0.19551   0.55647   0.95720   1.000
    C175    C    0.69548   0.05640   0.95710   1.000
    C176    C    0.69555   0.55645   0.95719   1.000
    C177    C    0.24487   0.11817   0.04548   1.000
    C178    C    0.24494   0.61823   0.04553   1.000
    C179    C    0.74491   0.11814   0.04545   1.000
    C180    C    0.74499   0.61820   0.04551   1.000
    C181    C    0.23191   0.17278   0.09771   1.000
    C182    C    0.23197   0.67284   0.09779   1.000
    C183    C    0.73196   0.17276   0.09771   1.000
    C184    C    0.73203   0.67281   0.09779   1.000
    C185    C    0.17256   0.16731   0.06555   1.000
    C186    C    0.17263   0.66737   0.06561   1.000
    C187    C    0.67261   0.16728   0.06560   1.000
    C188    C    0.67268   0.66734   0.06566   1.000
    C189    C    0.12378   0.10625   0.97878   1.000
    C190    C    0.12384   0.60629   0.97887   1.000
    C191    C    0.62382   0.10623   0.97882   1.000
    C192    C    0.62388   0.60627   0.97892   1.000
    C193    C    0.13596   0.05237   0.92622   1.000
    C194    C    0.13602   0.55241   0.92630   1.000
    C195    C    0.63599   0.05234   0.92625   1.000
    C196    C    0.63606   0.55239   0.92633   1.000
    C197    C    0.16033   0.22671   0.12155   1.000
    C198    C    0.16037   0.72674   0.12165   1.000
    C199    C    0.66038   0.22668   0.12159   1.000
    C200    C    0.66042   0.72671   0.12170   1.000
    C201    C    0.23018   0.33767   0.56656   1.000
    C202    C    0.23019   0.83766   0.56655   1.000
    C203    C    0.73019   0.33764   0.56651   1.000
    C204    C    0.73020   0.83763   0.56650   1.000
    C205    C    0.27367   0.45011   0.66855   1.000
    C206    C    0.27366   0.95009   0.66850   1.000
    C207    C    0.77367   0.45008   0.66850   1.000
    O208    O    0.28714   0.94119   0.33002   1.000
    O209    O    0.78715   0.44114   0.32993   1.000
    O210    O    0.78716   0.94118   0.33005   1.000
    O211    O    0.07258   0.28334   0.69021   1.000
    O212    O    0.07258   0.78326   0.69017   1.000
    O213    O    0.57259   0.28333   0.69017   1.000
    O214    O    0.57258   0.78326   0.69012   1.000
    O215    O    0.11243   0.21524   0.59609   1.000
    C216    C    0.80672   0.94508   0.58810   1.000
    C217    C    0.30217   0.34334   0.43248   1.000
    C218    C    0.30220   0.84334   0.43249   1.000
    C219    C    0.80220   0.34332   0.43245   1.000
    C220    C    0.80223   0.84332   0.43247   1.000
    C221    C    0.36671   0.34919   0.46655   1.000
    C222    C    0.36672   0.84918   0.46658   1.000
    C223    C    0.86673   0.34918   0.46655   1.000
    C224    C    0.86675   0.84916   0.46658   1.000
    C225    C    0.36644   0.29708   0.48942   1.000
    C226    C    0.36644   0.79704   0.48942   1.000
    C227    C    0.86648   0.29708   0.48944   1.000
    C228    C    0.86647   0.79704   0.48944   1.000
    C229    C    0.42613   0.30441   0.52565   1.000
    C230    C    0.42612   0.80436   0.52565   1.000
    C231    C    0.92617   0.30443   0.52569   1.000
    C232    C    0.92616   0.80438   0.52500   1.000
    C233    C    0.48744   0.36405   0.53970   1.000
    C234    C    0.48744   0.86400   0.53983   1.000
    C235    C    0.98747   0.36407   0.53980   1.000
    C236    C    0.98747   0.86402   0.53988   1.000
    C237    C    0.48768   0.41600   0.51649   1.000
    C238    C    0.48769   0.91597   0.51657   1.000
    C239    C    0.98771   0.41601   0.51653   1.000
    C240    C    0.98772   0.91598   0.51660   1.000
    C241    C    0.42803   0.40864   0.48016   1.000
    C242    C    0.42805   0.90863   0.48023   1.000
    C243    C    0.92805   0.40864   0.48017   1.000
    C244    C    0.92808   0.90863   0.48024   1.000
    C245    C    0.05213   0.37062   0.57532   1.000
    C246    C    0.05212   0.87056   0.57538   1.000
    C247    C    0.55210   0.37059   0.57527   1.000
    C248    C    0.55209   0.87053   0.57533   1.000
    C249    C    0.12669   0.37973   0.44510   1.000
    C250    C    0.12670   0.87971   0.44521   1.000
    C251    C    0.62668   0.37970   0.44509   1.000
    C252    C    0.62669   0.87968   0.44500   1.000
    C253    C    0.08432   0.26815   0.33920   1.000
    C254    C    0.08434   0.76814   0.33924   1.000
    C255    C    0.58432   0.26812   0.33918   1.000
    C256    C    0.58434   0.76811   0.33920   1.000
    C257    C    0.04992   0.27113   0.41804   1.000
    C258    C    0.04992   0.77110   0.41806   1.000
    C259    C    0.54990   0.27110   0.41799   1.000
    C260    C    0.54990   0.77107   0.41802   1.000
    C261    C    0.29275   0.49878   0.40040   1.000
    C262    C    0.29275   0.99881   0.40052   1.000
    C263    C    0.79278   0.49876   0.40046   1.000
    C264    C    0.79277   0.99879   0.40055   1.000
    C265    C    0.36191   0.05774   0.45882   1.000
    C266    C    0.36192   0.55768   0.45874   1.000
    C267    C    0.86193   0.05773   0.45880   1.000
    C268    C    0.86194   0.55767   0.45870   1.000
    C269    C    0.44140   0.67291   0.59970   1.000
    C270    C    0.94139   0.17299   0.59975   1.000
    C271    C    0.94140   0.67291   0.59972   1.000
    C272    C    0.49443   0.16639   0.56481   1.000
    C273    C    0.49444   0.66632   0.56470   1.000
    C274    C    0.99444   0.16638   0.56486   1.000
    C275    C    0.99445   0.66631   0.56478   1.000
    C276    C    0.48192   0.10524   0.47653   1.000
    C277    C    0.48193   0.60519   0.47641   1.000
    C278    C    0.98194   0.10525   0.47655   1.000
    C279    C    0.98195   0.60520   0.47643   1.000
    C280    C    0.41648   0.05250   0.42516   1.000
    C281    C    0.41649   0.55246   0.42504   1.000
    C282    C    0.91651   0.05251   0.42519   1.000
    C283    C    0.91652   0.55246   0.42506   1.000
    C284    C    0.06531   0.22464   0.61967   1.000
    C285    C    0.06532   0.72458   0.61961   1.000
    C286    C    0.56531   0.22463   0.61966   1.000
    C287    C    0.56532   0.72457   0.61959   1.000
    C288    C    0.10996   0.34182   0.07240   1.000
    C289    C    0.10998   0.84180   0.07240   1.000
    C290    C    0.60998   0.34177   0.07241   1.000
    C291    C    0.61000   0.84175   0.07248   1.000
    C292    C    0.17616   0.45435   0.17417   1.000
    C293    C    0.17616   0.95434   0.17420   1.000
    C294    C    0.67620   0.45431   0.17410   1.000
    C295    C    0.67620   0.95430   0.17419   1.000
    C296    C    0.13842   0.44906   0.09336   1.000
    C297    C    0.13841   0.94902   0.09337   1.000
    C298    C    0.63845   0.44902   0.09334   1.000
    C299    C    0.63845   0.94898   0.09335   1.000
    C300    C    0.04410   0.34660   0.93690   1.000
    C301    C    0.04412   0.84653   0.93694   1.000
    C302    C    0.54412   0.34656   0.93694   1.000
    C303    C    0.54414   0.84649   0.93695   1.000
    C304    C    0.48418   0.35079   0.96888   1.000
    C305    C    0.48419   0.85071   0.96884   1.000
    C306    C    0.98416   0.35081   0.96887   1.000
    C307    C    0.98417   0.85074   0.96884   1.000
    C308    C    0.43308   0.29752   0.98940   1.000
    C309    C    0.43306   0.79742   0.98932   1.000
    C310    C    0.93307   0.29753   0.98942   1.000
    C311    C    0.93305   0.79744   0.98931   1.000
    C312    C    0.37925   0.30311   0.02316   1.000
    C313    C    0.37922   0.80302   0.02302   1.000
    C314    C    0.87923   0.30311   0.02314   1.000
    C315    C    0.87920   0.80302   0.02301   1.000
    C316    C    0.37538   0.36221   0.03730   1.000
    C317    C    0.37538   0.86214   0.03722   1.000
    C318    C    0.87536   0.36221   0.03730   1.000
    C319    C    0.87535   0.86214   0.03723   1.000
    C320    C    0.42634   0.41530   0.01625   1.000
    C321    C    0.42636   0.91524   0.01620   1.000
    C322    C    0.92630   0.41531   0.01627   1.000
    C323    C    0.92633   0.91526   0.01625   1.000
    C324    C    0.48011   0.40969   0.98245   1.000
    C325    C    0.48014   0.90964   0.98246   1.000
    C326    C    0.98009   0.40971   0.98246   1.000
    C327    C    0.98011   0.90966   0.98247   1.000
    C328    C    0.31600   0.36716   0.07075   1.000
    C329    C    0.31600   0.86710   0.07060   1.000
    C330    C    0.81597   0.36714   0.07075   1.000
    C331    C    0.81597   0.86708   0.07068   1.000
    C332    C    0.25086   0.37540   0.93928   1.000
    C333    C    0.25086   0.87535   0.93922   1.000
    C334    C    0.75084   0.37536   0.93924   1.000
    C335    C    0.75085   0.87533   0.93919   1.000
    C336    C    0.18445   0.26373   0.83340   1.000
    C337    C    0.18443   0.76368   0.83339   1.000
    C338    C    0.68444   0.26369   0.83340   1.000
    C339    C    0.68441   0.76366   0.83337   1.000
    C340    C    0.22159   0.26697   0.91265   1.000
    C341    C    0.22157   0.76692   0.91260   1.000
    C342    C    0.72156   0.26694   0.91265   1.000
    C343    C    0.72154   0.76690   0.91260   1.000
    N344    N    0.22601   0.38276   0.65430   1.000
    N345    N    0.22601   0.88274   0.65434   1.000
    N346    N    0.72601   0.38273   0.65430   1.000
    N347    N    0.72602   0.88271   0.65429   1.000
    N348    N    0.27856   0.37378   0.52411   1.000
    N349    N    0.27857   0.87377   0.52412   1.000
    N350    N    0.77857   0.37375   0.52407   1.000
    N351    N    0.77859   0.87374   0.52408   1.000
    N352    N    0.13220   0.33626   0.35688   1.000
    N353    N    0.13222   0.83626   0.35697   1.000
    N354    N    0.63221   0.33623   0.35680   1.000
    N355    N    0.63223   0.83623   0.35697   1.000
    N356    N    0.07735   0.34199   0.48450   1.000
    N357    N    0.07735   0.84194   0.48463   1.000
    N358    N    0.57733   0.34196   0.48452   1.000
    N359    N    0.57733   0.84192   0.48459   1.000
    N360    N    0.30265   0.12391   0.08148   1.000
    N361    N    0.30273   0.62398   0.08152   1.000
    N362    N    0.80271   0.12388   0.08140   1.000
    N363    N    0.80279   0.62395   0.08145   1.000
    N364    N    0.15802   0.38712   0.16031   1.000
    N365    N    0.15803   0.88711   0.16039   1.000
    N366    N    0.65805   0.38707   0.16030   1.000
    N367    N    0.65806   0.88707   0.16039   1.000
    N368    N    0.09697   0.37764   0.02949   1.000
    N369    N    0.09698   0.87760   0.02952   1.000
    N370    N    0.59699   0.37760   0.02949   1.000
    N371    N    0.59700   0.87755   0.02952   1.000
    N372    N    0.20310   0.33174   0.85086   1.000
    N373    N    0.20309   0.83170   0.85080   1.000
    N374    N    0.70309   0.33171   0.85082   1.000
    N375    N    0.70308   0.83167   0.85070   1.000
    N376    N    0.26322   0.33790   0.97913   1.000
    N377    N    0.26322   0.83786   0.97907   1.000
    N378    N    0.76319   0.33788   0.97913   1.000
    N379    N    0.76319   0.83783   0.97907   1.000
    N380    N    0.32328   0.12649   0.58725   1.000
    N381    N    0.32329   0.62639   0.58728   1.000
    N382    N    0.82328   0.12646   0.58727   1.000
    N383    N    0.82330   0.62636   0.58730   1.000
    O384    O    0.26091   0.00170   0.91509   1.000
    O385    O    0.26097   0.50175   0.91516   1.000
    O386    O    0.76094   0.00167   0.91499   1.000
    O387    O    0.76101   0.50172   0.91507   1.000
    O388    O    0.15358   0.43922   0.82863   1.000
    O389    O    0.15352   0.93915   0.82856   1.000
    O390    O    0.65360   0.43919   0.82861   1.000
    O391    O    0.65353   0.93912   0.82854   1.000
    O392    O    0.21138   0.28495   0.19107   1.000
    O393    O    0.21142   0.78499   0.19110   1.000
    O394    O    0.71142   0.28492   0.19112   1.000
    O395    O    0.71146   0.78496   0.19121   1.000
    O396    O    0.10429   0.21835   0.09993   1.000
    O397    O    0.10433   0.71837   0.10001   1.000
    O398    O    0.60434   0.21832   0.09997   1.000
    O399    O    0.60438   0.71834   0.10006   1.000
    O400    O    0.24306   0.00536   0.42001   1.000
    O401    O    0.24308   0.50533   0.41994   1.000
    O402    O    0.74308   0.00533   0.42000   1.000
    O403    O    0.74309   0.50530   0.41995   1.000
    O404    O    0.28712   0.44116   0.32991   1.000
    O405    O    0.11245   0.71520   0.59602   1.000
    O406    O    0.61243   0.21522   0.59607   1.000
    O407    O    0.61245   0.71518   0.59601   1.000
loop_
    _geom_bond_atom_site_label_1
    _geom_bond_atom_site_label_2
    _geom_bond_distance
    _geom_bond_site_symmetry_2
    _ccdc_geom_bond_type
    H76    N360      1.25139      .   S
    H77    N361      1.25174      .   S
    H78    N362      1.25055      .   S
    H79    N363      1.25100      .   S
    C321   H129      1.09159      .   S
    C321   C317      1.40094      .   S
    C321   C325      1.39442  1_554   S
    C323   H131      1.09171      .   S
    C323   C319      1.40070      .   S
    C323   C327      1.39457  1_554   S
    C320   H128      1.09174      .   S
    C320   C316      1.40068      .   S
    C320   C324      1.39458  1_554   S
    C322   H130      1.09200      .   S
    C322   C318      1.40061      .   S
    C322   C326      1.39458  1_554   S
    C315   C319      1.40147      .   S
    C315   H127      1.09134      .   S
    C315   C311      1.39534  1_554   S
    C313   C317      1.40148      .   S
    C313   H125      1.09129      .   S
    C313   C309      1.39537  1_554   S
    C314   C318      1.40148      .   S
    C314   H126      1.09131      .   S
    C314   C310      1.39530  1_554   S
    C312   C316      1.40149      .   S
    C312   H124      1.09099      .   S
    C312   C308      1.39551  1_554   S
    N370   C290      1.35638      .   S
    N370   C298      1.38610      .   S
    N370   C302      1.47249  1_554   S
    N368   C288      1.35632      .   S
    N368   C296      1.38611      .   S
    N368   C300      1.47281  1_554   S
    N371   C291      1.35633      .   S
    N371   C299      1.38611      .   S
    N371   C303      1.47245  1_554   S
    N369   C289      1.35563      .   S
    N369   C297      1.38611      .   S
    N369   C301      1.47250  1_554   S
    C317   C329      1.51179      .   S
    C319   C331      1.51205      .   S
    C318   C330      1.51209      .   S
    C316   C328      1.51208      .   S
    H96    C288      1.08483      .   S
    H98    C290      1.08480      .   S
    H97    C289      1.08490      .   S
    H99    C291      1.08481      .   S
    C179   N362      1.37129      .   S
    C179   C183      1.41259      .   S
    C179   C175      1.42809  1_554   S
    C177   N360      1.37126      .   S
    C177   C181      1.41258      .   S
    C177   C173      1.42810  1_554   S
    C180   N363      1.37129      .   S
    C180   C184      1.41260      .   S
    C180   C176      1.42808  1_554   S
    C178   N361      1.37129      .   S
    C178   C182      1.41260      .   S
    C178   C174      1.42808  1_554   S
    C185   C181      1.39257      .   S
    C185   C197      1.50595      .   S
    C185   C189      1.40743  1_554   S
    C187   C183      1.39257      .   S
    C187   C199      1.50594      .   S
    C187   C191      1.40750  1_554   S
    C186   C182      1.39261      .   S
    C186   C198      1.50592      .   S
    C186   C190      1.40746  1_554   S
    C188   C184      1.39257      .   S
    C188   C200      1.50594      .   S
    C188   C192      1.40749  1_554   S
    C329   H146      1.09760      .   S
    C329   H142      1.09935      .   S
    C329   N377      1.47188  1_554   S
    C331   H148      1.09743      .   S
    C331   H144      1.09850      .   S
    C331   N379      1.47261  1_554   S
    C330   H147      1.09742      .   S
    C330   H143      1.09847      .   S
    C330   N378      1.47258  1_554   S
    C328   H145      1.09744      .   S
    C328   H141      1.09850      .   S
    C328   N376      1.47265  1_554   S
    C288   N364      1.33703      .   S
    C289   N365      1.33767      .   S
    C290   N366      1.33694      .   S
    C291   N367      1.33708      .   S
    H111   C299      1.08235      .   S
    H109   C297      1.08242      .   S
    H110   C298      1.08237      .   S
    H108   C296      1.08236      .   S
    N362   H82       1.01546      .   S
    N363   H83       1.01541      .   S
    N360   H80       1.01543      .   S
    N361   H81       1.01544      .   S
    C298   C294      1.36919      .   S
    C299   C295      1.36974      .   S
    C296   C292      1.36972      .   S
    C297   C293      1.36961      .   S
    C181   H7        1.09075      .   S
    C183   H9        1.09072      .   S
    C182   H8        1.09073      .   S
    C184   H10       1.09077      .   S
    O396   C197      1.24942      .   S
    O398   C199      1.24941      .   S
    O397   C198      1.24944      .   S
    O399   C200      1.24944      .   S
    C197   O392      1.30443      .   S
    C199   O394      1.30442      .   S
    C198   O393      1.30415      .   S
    C200   O395      1.30440      .   S
    N366   C294      1.38637      .   S
    N366   Zn5       2.01324      .   S
    N364   C292      1.38615      .   S
    N364   Zn3       2.01318      .   S
    N367   C295      1.38620      .   S
    N367   Zn6       2.01336      .   S
    N365   C293      1.38621      .   S
    N365   Zn4       2.01330      .   S
    C294   H106      1.08332      .   S
    C292   H104      1.08299      .   S
    C295   H107      1.07893  1_565   S
    C293   H105      1.07873  1_565   S
    O392   Zn3       2.00078      .   S
    O393   Zn4       2.00098      .   S
    O394   Zn5       2.00092      .   S
    O395   Zn6       2.00101      .   S
    Zn3    O404      2.00051      .   S
    Zn3    N352      2.01817      .   S
    Zn5    O209      2.00053      .   S
    Zn5    N354      2.01738      .   S
    Zn4    O208      2.00032      .   S
    Zn4    N353      2.01810      .   S
    Zn6    O210      2.00032      .   S
    Zn6    N355      2.01811      .   S
    H70    C255      1.08607      .   S
    H69    C254      1.08341      .   S
    H68    C253      1.08319      .   S
    H71    C256      1.08302      .   S
    O404   C261      1.30095      .   S
    O209   C263      1.30113      .   S
    O208   C262      1.30114      .   S
    O210   C264      1.30112      .   S
    C255   N354      1.38700      .   S
    C255   C259      1.36956      .   S
    C256   N355      1.38661      .   S
    C256   C260      1.36986      .   S
    C253   N352      1.38673      .   S
    C253   C257      1.36965      .   S
    C254   N353      1.38671      .   S
    C254   C258      1.36959      .   S
    H93    C281      1.08977      .   S
    H95    C283      1.08982      .   S
    H92    C280      1.08979      .   S
    H94    C282      1.08979      .   S
    N354   C251      1.33745      .   S
    N352   C249      1.33670      .   S
    N353   C250      1.33676      .   S
    N355   C252      1.33503      .   S
    H31    C217      1.09888      .   S
    H34    C219      1.09783      .   S
    H35    C220      1.09791      .   S
    H33    C218      1.09775      .   S
    H39    C220      1.09702      .   S
    H38    C219      1.09701      .   S
    H37    C218      1.09701      .   S
    H36    C217      1.09702      .   S
    C261   O401      1.26395      .   S
    C261   C266      1.49155      .   S
    C263   O403      1.26387      .   S
    C263   C268      1.49131      .   S
    C262   O400      1.26405  1_565   S
    C262   C265      1.49146  1_565   S
    C264   O402      1.26400  1_565   S
    C264   C267      1.49138  1_565   S
    C259   H74       1.08247      .   S
    C259   N358      1.38592      .   S
    C260   H75       1.08204      .   S
    C260   N359      1.38594      .   S
    C257   H72       1.08244      .   S
    C257   N356      1.38571      .   S
    C258   H73       1.08246      .   S
    C258   N357      1.38592      .   S
    C281   C266      1.40813      .   S
    C281   C277      1.38686      .   S
    C283   C268      1.40793      .   S
    C283   C279      1.38688      .   S
    C280   C265      1.40816      .   S
    C280   C276      1.38684      .   S
    C282   C267      1.40798      .   S
    C282   C278      1.38684      .   S
    C219   C223      1.51188      .   S
    C219   N350      1.47259      .   S
    C220   C224      1.51189      .   S
    C220   N351      1.47257      .   S
    C217   C221      1.51187      .   S
    C217   N348      1.47255      .   S
    C218   C222      1.51193      .   S
    C218   N349      1.47261      .   S
    C252   H67       1.08382      .   S
    C252   N359      1.35831      .   S
    C251   H66       1.08389      .   S
    C251   N358      1.35649      .   S
    C249   H64       1.08387      .   S
    C249   N356      1.35600      .   S
    C250   H65       1.08390      .   S
    C250   N357      1.35650      .   S
    H89    C279      1.08866  1_455   S
    H91    C277      1.08860      .   S
    H90    C276      1.08858      .   S
    H88    C278      1.08835  1_455   S
    C268   C135      1.42848      .   S
    C266   C133      1.42808      .   S
    C267   C134      1.42834      .   S
    C265   C132      1.42806      .   S
    H54    C243      1.09105      .   S
    H52    C241      1.09107      .   S
    H55    C244      1.09106      .   S
    H53    C242      1.09112      .   S
    C223   C243      1.40139      .   S
    C223   C227      1.40090      .   S
    C221   C241      1.40137      .   S
    C221   C225      1.40090      .   S
    C222   C242      1.40136      .   S
    C222   C226      1.40090      .   S
    C224   C244      1.40137      .   S
    C224   C228      1.40092      .   S
    C277   C273      1.40729      .   S
    C279   C275      1.40752      .   S
    C276   C272      1.40754      .   S
    C278   C274      1.40755      .   S
    H41    C226      1.09195      .   S
    H43    C228      1.09192      .   S
    H40    C225      1.09192      .   S
    H42    C227      1.09193      .   S
    C241   C237      1.39468      .   S
    C243   C239      1.39468      .   S
    C242   C238      1.39467      .   S
    C244   C240      1.39466      .   S
    N356   C245      1.47341      .   S
    N358   C247      1.47279      .   S
    N359   C248      1.47275      .   S
    N357   C246      1.47278      .   S
    C226   C230      1.39523      .   S
    C225   C229      1.39528      .   S
    C227   C231      1.39525      .   S
    C228   C232      1.39215      .   S
    C237   H50       1.09171      .   S
    C237   C233      1.39992      .   S
    C239   H48       1.09164  1_655   S
    C239   C235      1.40031      .   S
    C238   H51       1.09174      .   S
    C238   C234      1.40055      .   S
    C240   H49       1.09159  1_655   S
    C240   C236      1.40060      .   S
    N350   C203      1.35663      .   S
    N350   C103      1.38583      .   S
    N351   C204      1.35658      .   S
    N351   C216      1.38581      .   S
    N348   C201      1.35666      .   S
    N348   C101      1.38583      .   S
    N349   C202      1.35660      .   S
    N349   C102      1.38584      .   S
    C232   C236      1.39912      .   S
    C232   H47       1.09678      .   S
    C229   C233      1.40177      .   S
    C229   H44       1.09129      .   S
    C230   C234      1.40146      .   S
    C230   H45       1.09131      .   S
    C231   C235      1.40159      .   S
    C231   H46       1.09126      .   S
    H22    C204      1.08465      .   S
    H21    C203      1.08464      .   S
    H20    C202      1.08466      .   S
    H19    C201      1.08465      .   S
    H161   N380      1.02774      .   S
    H162   N381      1.02775      .   S
    H163   N382      1.02779      .   S
    H164   N383      1.02779      .   S
    C233   C247      1.51247      .   S
    C235   C245      1.51202  1_655   S
    C234   C248      1.51212      .   S
    C236   C246      1.51189  1_655   S
    C133   N381      1.37178      .   S
    C133   C269      1.41242      .   S
    C132   N380      1.37174      .   S
    C132   C136      1.41244      .   S
    C135   N383      1.37172      .   S
    C135   C271      1.41241      .   S
    C134   N382      1.37172      .   S
    C134   C270      1.41243      .   S
    C273   C269      1.39290      .   S
    C273   C287      1.50568      .   S
    C275   C271      1.39276      .   S
    C275   C285      1.50547  1_655   S
    C272   C136      1.39272      .   S
    C272   C286      1.50558      .   S
    C274   C270      1.39275      .   S
    C274   C284      1.50544  1_655   S
    C204   N347      1.33717      .   S
    C203   N346      1.33713      .   S
    C202   N345      1.33715      .   S
    C201   N344      1.33666      .   S
    H29    C103      1.08234      .   S
    H30    C216      1.08234      .   S
    H27    C101      1.08237      .   S
    H28    C102      1.08235      .   S
    C247   H62       1.09735      .   S
    C247   H58       1.09848      .   S
    C245   H60       1.09733      .   S
    C245   H56       1.09853      .   S
    C248   H63       1.09733      .   S
    C248   H59       1.09852      .   S
    C246   H61       1.09734      .   S
    C246   H57       1.09845      .   S
    N380   H165      1.01553      .   S
    N382   H167      1.01548      .   S
    N381   H166      1.01554      .   S
    N383   H168      1.01559      .   S
    C103   C207      1.36918      .   S
    C216   C100      1.36922      .   S
    C101   C205      1.36921      .   S
    C102   C206      1.36869      .   S
    O407   C287      1.24967      .   S
    O405   C285      1.24966      .   S
    O406   C286      1.24968      .   S
    O215   C284      1.24965      .   S
    C269   H85       1.09070      .   S
    C271   H87       1.09072      .   S
    C136   H84       1.09080      .   S
    C270   H86       1.09074      .   S
    C287   O214      1.30460      .   S
    C285   O212      1.30463      .   S
    C286   O213      1.30457      .   S
    C284   O211      1.30459      .   S
    N347   C100      1.38614      .   S
    N347   Zn2       2.00969      .   S
    N344   C205      1.38587      .   S
    N344   Zn32      2.01264      .   S
    N346   C207      1.38612      .   S
    N346   Zn1       2.01190      .   S
    N345   C206      1.38631      .   S
    N345   Zn0       2.01201      .   S
    C100   H26       1.08259      .   S
    C207   H25       1.08279      .   S
    C206   H24       1.08308      .   S
    C205   H23       1.08279      .   S
    O214   Zn2       1.99800      .   S
    O212   Zn0       1.99835      .   S
    O213   Zn1       1.99831      .   S
    O211   Zn32      1.99836      .   S
    Zn2    O391      2.00476      .   S
    Zn2    N375      2.01916      .   S
    Zn1    O390      2.00426      .   S
    Zn1    N374      2.01797      .   S
    Zn0    O389      2.00435      .   S
    Zn0    N373      2.01768      .   S
    Zn32   O388      2.00423      .   S
    Zn32   N372      2.01789      .   S
    H156   C339      1.08339      .   S
    H154   C337      1.08341      .   S
    H155   C338      1.08341      .   S
    H153   C336      1.08322      .   S
    O391   C172      1.30062      .   S
    O389   C170      1.30062      .   S
    O390   C171      1.30064      .   S
    O388   C169      1.30064      .   S
    C339   N375      1.38709      .   S
    C339   C343      1.37007      .   S
    C337   N373      1.38688      .   S
    C337   C341      1.37011      .   S
    C338   N374      1.38676      .   S
    C338   C342      1.37012      .   S
    C336   N372      1.38669      .   S
    C336   C340      1.37038      .   S
    N375   C335      1.33732      .   S
    N373   C333      1.33679      .   S
    N374   C334      1.33657      .   S
    N372   C332      1.33666      .   S
    H15    C193      1.08979      .   S
    H17    C195      1.08985      .   S
    H16    C194      1.08979      .   S
    H18    C196      1.08983      .   S
    H112   C300      1.09853      .   S
    H113   C301      1.09797      .   S
    H115   C303      1.09797      .   S
    H114   C302      1.09794      .   S
    H116   C300      1.09716      .   S
    H118   C302      1.09709      .   S
    H117   C301      1.09710      .   S
    H119   C303      1.09705      .   S
    C172   O386      1.26385  1_565   S
    C172   C175      1.49172  1_565   S
    C170   O384      1.26385  1_565   S
    C170   C173      1.49175  1_565   S
    C171   O387      1.26401      .   S
    C171   C176      1.49148      .   S
    C169   O385      1.26403      .   S
    C169   C174      1.49147      .   S
    C341   H158      1.08251      .   S
    C341   N377      1.38620      .   S
    C343   H160      1.08253      .   S
    C343   N379      1.38621      .   S
    C340   H157      1.08257      .   S
    C340   N376      1.38618      .   S
    C342   H159      1.08242      .   S
    C342   N378      1.38621      .   S
    C193   C173      1.40806      .   S
    C193   C189      1.38687      .   S
    C195   C175      1.40804      .   S
    C195   C191      1.38683      .   S
    C194   C174      1.40806      .   S
    C194   C190      1.38684      .   S
    C196   C176      1.40806      .   S
    C196   C192      1.38681      .   S
    C300   C306      1.51187  1_455   S
    C301   C307      1.51176  1_455   S
    C302   C304      1.51196      .   S
    C303   C305      1.51197      .   S
    C335   H152      1.08403      .   S
    C335   N379      1.35618      .   S
    C333   H150      1.08403      .   S
    C333   N377      1.35619      .   S
    C334   H151      1.08404      .   S
    C334   N378      1.35618      .   S
    C332   H149      1.08405      .   S
    C332   N376      1.35608      .   S
    H11    C189      1.08857      .   S
    H13    C191      1.08852      .   S
    H12    C190      1.08851      .   S
    H14    C192      1.08852      .   S
    H139   C324      1.09734      .   S
    H137   C326      1.09100  1_455   S
    H140   C325      1.09117      .   S
    H138   C327      1.09105  1_455   S
    C307   C327      1.40143      .   S
    C307   C311      1.40077      .   S
    C305   C325      1.40142      .   S
    C305   C309      1.40079      .   S
    C306   C326      1.40141      .   S
    C306   C310      1.40080      .   S
    C304   C324      1.40144      .   S
    C304   C308      1.40049      .   S
    H123   C311      1.09191      .   S
    H121   C309      1.09189      .   S
    H122   C310      1.09192      .   S
    H120   C308      1.09204      .   S
