# CIF file generated by openbabel 2.4.90, see http://openbabel.sf.net
data_I
_chemical_name_common ''
_cell_length_a 16.563
_cell_length_b 16.569
_cell_length_c 16.571
_cell_angle_alpha 105.564
_cell_angle_beta 105.413
_cell_angle_gamma 105.367
_space_group_name_H-M_alt 'P 1'
_space_group_name_Hall 'P 1'
loop_
    _symmetry_equiv_pos_as_xyz
    x,y,z
loop_
    _atom_site_label
    _atom_site_type_symbol
    _atom_site_fract_x
    _atom_site_fract_y
    _atom_site_fract_z
    _atom_site_occupancy
    Cu0     Cu   0.74939   0.43629   0.06201   1.000
    Cu1     Cu   0.93800   0.56346   0.25077   1.000
    Cu2     Cu   0.06199   0.74917   0.43644   1.000
    Cu3     Cu   0.25064   0.93789   0.56358   1.000
    Cu4     Cu   0.43628   0.06174   0.74942   1.000
    Cu5     Cu   0.43637   0.74957   0.06183   1.000
    Cu6     Cu   0.25063   0.56376   0.93801   1.000
    Cu7     Cu   0.06202   0.43659   0.74923   1.000
    Cu8     Cu   0.93802   0.25088   0.56356   1.000
    Cu9     Cu   0.74939   0.06221   0.43645   1.000
    Cu10    Cu   0.56373   0.93832   0.25059   1.000
    Cu11    Cu   0.56365   0.25050   0.93818   1.000
    I12     I    0.73588   0.26401   0.99991   1.000
    I13     I    0.49989   0.23373   0.76617   1.000
    I14     I    0.99993   0.73567   0.26422   1.000
    I15     I    0.76605   0.50008   0.23408   1.000
    I16     I    0.26411   0.00000   0.73587   1.000
    I17     I    0.23397   0.76582   0.49979   1.000
    I18     I    0.26415   0.73605   0.00010   1.000
    I19     I    0.50015   0.76634   0.23384   1.000
    I20     I    0.00008   0.26438   0.73577   1.000
    I21     I    0.23395   0.49997   0.76593   1.000
    I22     I    0.73592   0.00006   0.26412   1.000
    I23     I    0.76605   0.23425   0.50022   1.000
loop_
    _geom_bond_atom_site_label_1
    _geom_bond_atom_site_label_2
    _geom_bond_distance
    _geom_bond_site_symmetry_2
    _ccdc_geom_bond_type
    I18    Cu6       2.68711  1_554   S
    Cu0    I12       2.68699  1_554   S
    I19    Cu10      2.67121      .   S
    I15    Cu1       2.67033      .   S
    Cu10   I22       2.68721  1_565   S
    I14    Cu2       2.68836  1_655   S
    Cu2    I17       2.67028      .   S
    Cu9    I23       2.67017      .   S
    Cu8    I20       2.68822  1_655   S
    I16    Cu4       2.68693      .   S
    Cu7    I21       2.67011      .   S
    I13    Cu11      2.67145      .   S
