# CIF file generated by openbabel 2.4.90, see http://openbabel.sf.net
data_I
_chemical_name_common ''
_cell_length_a 16.563
_cell_length_b 16.569
_cell_length_c 16.571
_cell_angle_alpha 105.564
_cell_angle_beta 105.413
_cell_angle_gamma 105.367
_space_group_name_H-M_alt 'P 1'
_space_group_name_Hall 'P 1'
loop_
    _symmetry_equiv_pos_as_xyz
    x,y,z
loop_
    _atom_site_label
    _atom_site_type_symbol
    _atom_site_fract_x
    _atom_site_fract_y
    _atom_site_fract_z
    _atom_site_occupancy
    N0      N    0.50001   0.00003   1.00000   1.000
    N1      N    0.50001   0.50003   1.00000   1.000
    N2      N    0.00001   0.50003   1.00000   1.000
    N3      N    0.00001   0.50002   0.50000   1.000
    N4      N    0.00001   0.00003   0.49998   1.000
    N5      N    0.50001   0.00003   0.49999   1.000
    Zr6     Zr   0.53177   0.24211   0.85218   1.000
    O7      O    0.53051   0.32378   0.91696   1.000
    O8      O    0.52553   0.16851   0.91175   1.000
    Zr9     Zr   0.74263   0.35015   0.03096   1.000
    O10     O    0.82385   0.41542   0.02986   1.000
    O11     O    0.66858   0.41044   0.02464   1.000
    Zr12    Zr   0.85203   0.53177   0.24243   1.000
    O13     O    0.91164   0.52549   0.16870   1.000
    O14     O    0.91685   0.53046   0.32397   1.000
    Zr15    Zr   0.09863   0.75022   0.40015   1.000
    O16     O    0.06369   0.82762   0.44045   1.000
    O17     O    0.05848   0.67235   0.43548   1.000
    Zr18    Zr   0.25064   0.93789   0.56358   1.000
    O19     O    0.32806   0.95976   0.54638   1.000
    O20     O    0.17279   0.95455   0.54142   1.000
    Zr21    Zr   0.35020   0.03087   0.74265   1.000
    O22     O    0.41047   0.02455   0.66858   1.000
    O23     O    0.41545   0.02977   0.82386   1.000
    Zr24    Zr   0.43637   0.74957   0.06183   1.000
    O25     O    0.45357   0.67209   0.04004   1.000
    O26     O    0.45855   0.82736   0.04525   1.000
    Zr27    Zr   0.25739   0.64991   0.96905   1.000
    O28     O    0.33144   0.58961   0.97536   1.000
    O29     O    0.17617   0.58463   0.97015   1.000
    Zr30    Zr   0.14799   0.46828   0.75758   1.000
    O31     O    0.08837   0.47456   0.83131   1.000
    O32     O    0.08316   0.46959   0.67603   1.000
    Zr33    Zr   0.96905   0.25763   0.64967   1.000
    O34     O    0.97015   0.17633   0.58445   1.000
    O35     O    0.97536   0.33160   0.58943   1.000
    Zr36    Zr   0.75772   0.14823   0.46834   1.000
    O37     O    0.83140   0.08854   0.47453   1.000
    O38     O    0.67613   0.08333   0.46956   1.000
    Zr39    Zr   0.59993   0.90157   0.24952   1.000
    O40     O    0.56460   0.94170   0.32749   1.000
    O41     O    0.55963   0.93648   0.17222   1.000
loop_
    _geom_bond_atom_site_label_1
    _geom_bond_atom_site_label_2
    _geom_bond_distance
    _geom_bond_site_symmetry_2
    _ccdc_geom_bond_type
    Zr6    O7        1.49376      .   S
    N1     O7        3.10982      .   S
    Zr6    O8        1.76241      .   S
    N0     O8        3.46467      .   S
    Zr9    O10       1.49407      .   S
    N2     O10       3.11361  1_456   S
    Zr9    O11       1.77496      .   S
    N1     O11       3.47580  1_556   S
    Zr12   O13       1.76234      .   S
    N2     O13       3.46477  1_456   S
    Zr12   O14       1.49534      .   S
    N3     O14       3.11160  1_455   S
    Zr15   O16       1.60148      .   S
    N4     O16       3.29904  1_545   S
    Zr15   O17       1.61473      .   S
    N3     O17       3.30999      .   S
    Zr18   O19       1.36384      .   S
    N5     O19       3.09508  1_545   S
    Zr18   O20       1.36574      .   S
    N4     O20       3.09919  1_545   S
    Zr21   O22       1.77522      .   S
    N5     O22       3.47596      .   S
    Zr21   O23       1.49343      .   S
    N0     O23       3.11254      .   S
    Zr24   O25       1.36358      .   S
    N1     O25       3.09475  1_556   S
    Zr24   O26       1.36547      .   S
    N0     O26       3.09883  1_546   S
    Zr27   O28       1.77494      .   S
    N1     O28       3.47580      .   S
    Zr27   O29       1.49409      .   S
    N2     O29       3.11352      .   S
    Zr30   O31       1.76227      .   S
    N2     O31       3.46460      .   S
    Zr30   O32       1.49537      .   S
    N3     O32       3.11169      .   S
    Zr33   O34       1.49172      .   S
    N4     O34       3.11063  1_455   S
    Zr33   O35       1.77588      .   S
    N3     O35       3.47666  1_455   S
    Zr36   O37       1.76228      .   S
    N4     O37       3.46467  1_455   S
    Zr36   O38       1.49626      .   S
    N5     O38       3.11292      .   S
    Zr39   O40       1.61279      .   S
    N5     O40       3.30763  1_545   S
    Zr39   O41       1.60274      .   S
    N0     O41       3.30052  1_546   S
