# CIF file generated by openbabel 2.4.90, see http://openbabel.sf.net
data_I
_chemical_name_common ''
_cell_length_a 18.39
_cell_length_b 18.388
_cell_length_c 18.393
_cell_angle_alpha 60.437
_cell_angle_beta 60.428
_cell_angle_gamma 60.436
_space_group_name_H-M_alt 'P 1'
_space_group_name_Hall 'P 1'
loop_
    _symmetry_equiv_pos_as_xyz
    x,y,z
loop_
    _atom_site_label
    _atom_site_type_symbol
    _atom_site_fract_x
    _atom_site_fract_y
    _atom_site_fract_z
    _atom_site_occupancy
    N0      N    0.50000   0.00000   0.49999   1.000
    N1      N    1.00000   0.50000   0.49998   1.000
    N2      N    0.50000   1.00000   0.99999   1.000
    N3      N    0.49999   0.50000   0.99999   1.000
    N4      N    0.99999   0.00000   0.49998   1.000
    N5      N    0.99999   0.50000   0.99999   1.000
    Zr6     Zr   0.25001   0.25000   0.25000   1.000
    Zr7     Zr   0.74999   0.75000   0.74997   1.000
    O8      O    0.83236   0.66743   0.66742   1.000
    O9      O    0.16763   0.33257   0.33256   1.000
    O10     O    0.66742   0.66743   0.83235   1.000
    O11     O    0.83255   0.83254   0.66756   1.000
    O12     O    0.66756   0.83255   0.83252   1.000
    O13     O    0.66741   0.83237   0.66740   1.000
    O14     O    0.83256   0.66758   0.83253   1.000
    O15     O    0.33257   0.33257   0.16763   1.000
    O16     O    0.16744   0.16746   0.33241   1.000
    O17     O    0.33243   0.16745   0.16745   1.000
    O18     O    0.33258   0.16763   0.33256   1.000
    O19     O    0.16743   0.33242   0.16745   1.000
loop_
    _geom_bond_atom_site_label_1
    _geom_bond_atom_site_label_2
    _geom_bond_distance
    _geom_bond_site_symmetry_2
    _ccdc_geom_bond_type
    N1     O8        4.36863      .   S
    Zr7    O8        2.15424      .   S
    N1     O9        4.36853  1_655   S
    Zr6    O9        2.15426      .   S
    Zr7    O10       2.15419      .   S
    N3     O10       4.36825      .   S
    Zr7    O11       2.15387      .   S
    N4     O11       4.36890  1_545   S
    Zr7    O12       2.15393      .   S
    N2     O12       4.36933      .   S
    Zr7    O13       2.15487      .   S
    N0     O13       4.36910  1_545   S
    Zr7    O14       2.15462      .   S
    N5     O14       4.36992      .   S
    N3     O15       4.36824  1_556   S
    Zr6    O15       2.15418      .   S
    N4     O16       4.36889  1_655   S
    Zr6    O16       2.15386      .   S
    Zr6    O17       2.15392      .   S
    N2     O17       4.36924  1_566   S
    Zr6    O18       2.15483      .   S
    N0     O18       4.36919      .   S
    Zr6    O19       2.15459      .   S
    N5     O19       4.36989  1_656   S
