# CIF file generated by openbabel 2.4.90, see http://openbabel.sf.net
data_I
_chemical_name_common ''
_cell_length_a 18.39
_cell_length_b 18.388
_cell_length_c 18.393
_cell_angle_alpha 60.437
_cell_angle_beta 60.428
_cell_angle_gamma 60.436
_space_group_name_H-M_alt 'P 1'
_space_group_name_Hall 'P 1'
loop_
    _symmetry_equiv_pos_as_xyz
    x,y,z
loop_
    _atom_site_label
    _atom_site_type_symbol
    _atom_site_fract_x
    _atom_site_fract_y
    _atom_site_fract_z
    _atom_site_occupancy
    N0      N    0.50000   0.00000   0.49999   1.000
    N1      N    1.00000   0.50000   0.49998   1.000
    N2      N    0.50000   1.00000   0.99999   1.000
    N3      N    0.49999   0.50000   0.99999   1.000
    N4      N    0.99999   0.00000   0.49998   1.000
    N5      N    0.99999   0.50000   0.99999   1.000
    Zr6     Zr   0.25001   0.25000   0.25000   1.000
    O7      O    0.35110   0.16764   0.31405   1.000
    O8      O    0.35109   0.31405   0.16765   1.000
    O9      O    0.35101   0.16755   0.16757   1.000
    O10     O    0.16755   0.35100   0.16755   1.000
    O11     O    0.16763   0.35109   0.31404   1.000
    O12     O    0.31405   0.35109   0.16760   1.000
    O13     O    0.16731   0.16736   0.31383   1.000
    O14     O    0.16731   0.31385   0.16734   1.000
    O15     O    0.31384   0.16734   0.16733   1.000
    O16     O    0.16764   0.31405   0.35107   1.000
    O17     O    0.16757   0.16756   0.35098   1.000
    O18     O    0.31407   0.16761   0.35107   1.000
    Zr19    Zr   0.74999   0.75000   0.74997   1.000
    O20     O    0.83268   0.68615   0.83264   1.000
    O21     O    0.83268   0.83264   0.68614   1.000
    O22     O    0.68615   0.83266   0.83264   1.000
    O23     O    0.83235   0.68595   0.64890   1.000
    O24     O    0.83242   0.83244   0.64899   1.000
    O25     O    0.68593   0.83239   0.64890   1.000
    O26     O    0.64890   0.68595   0.83232   1.000
    O27     O    0.64898   0.83245   0.83240   1.000
    O28     O    0.64889   0.83236   0.68591   1.000
    O29     O    0.83244   0.64900   0.83242   1.000
    O30     O    0.83237   0.64891   0.68593   1.000
    O31     O    0.68594   0.64891   0.83237   1.000
loop_
    _geom_bond_atom_site_label_1
    _geom_bond_atom_site_label_2
    _geom_bond_distance
    _geom_bond_site_symmetry_2
    _ccdc_geom_bond_type
    Zr6    O7        2.18190      .   S
    N0     O7        4.38264      .   S
    Zr6    O8        2.18131      .   S
    N3     O8        4.38165  1_556   S
    Zr6    O9        2.18105      .   S
    N2     O9        4.38234  1_566   S
    Zr6    O10       2.18160      .   S
    N5     O10       4.38301  1_656   S
    Zr6    O11       2.18136      .   S
    N1     O11       4.38197  1_655   S
    Zr6    O12       2.18126      .   S
    N3     O12       4.38169  1_556   S
    Zr6    O13       2.18136      .   S
    N4     O13       4.38276  1_655   S
    Zr6    O14       2.18205      .   S
    N5     O14       4.38376  1_656   S
    Zr6    O15       2.18133      .   S
    N2     O15       4.38314  1_566   S
    Zr6    O16       2.18136      .   S
    N1     O16       4.38195  1_655   S
    Zr6    O17       2.18088      .   S
    N4     O17       4.38203  1_655   S
    Zr6    O18       2.18192      .   S
    N0     O18       4.38257      .   S
    Zr19   O20       2.18209      .   S
    N5     O20       4.38378      .   S
    Zr19   O21       2.18137      .   S
    N4     O21       4.38277  1_545   S
    Zr19   O22       2.18138      .   S
    N2     O22       4.38320      .   S
    Zr19   O23       2.18135      .   S
    N1     O23       4.38203      .   S
    Zr19   O24       2.18089      .   S
    N4     O24       4.38203  1_545   S
    Zr19   O25       2.18189      .   S
    N0     O25       4.38256  1_545   S
    Zr19   O26       2.18132      .   S
    N3     O26       4.38166      .   S
    Zr19   O27       2.18102      .   S
    N2     O27       4.38248      .   S
    Zr19   O28       2.18200      .   S
    N0     O28       4.38248  1_545   S
    Zr19   O29       2.18162      .   S
    N5     O29       4.38305      .   S
    Zr19   O30       2.18133      .   S
    N1     O30       4.38208      .   S
    Zr19   O31       2.18126      .   S
    N3     O31       4.38170      .   S
