# CIF file generated by openbabel 2.4.90, see http://openbabel.sf.net
data_I
_chemical_name_common ''
_cell_length_a 18.39
_cell_length_b 18.388
_cell_length_c 18.393
_cell_angle_alpha 60.437
_cell_angle_beta 60.428
_cell_angle_gamma 60.436
_space_group_name_H-M_alt 'P 1'
_space_group_name_Hall 'P 1'
loop_
    _symmetry_equiv_pos_as_xyz
    x,y,z
loop_
    _atom_site_label
    _atom_site_type_symbol
    _atom_site_fract_x
    _atom_site_fract_y
    _atom_site_fract_z
    _atom_site_occupancy
    Zr0     Zr   0.38017   0.20697   0.20703   1.000
    Zr1     Zr   0.20697   0.38015   0.20696   1.000
    Zr2     Zr   0.20704   0.20697   0.38011   1.000
    Zr3     Zr   0.20596   0.20605   0.20601   1.000
    Zr4     Zr   0.79302   0.61985   0.79302   1.000
    Zr5     Zr   0.61982   0.79303   0.79290   1.000
    Zr6     Zr   0.79295   0.79303   0.61987   1.000
    Zr7     Zr   0.79403   0.79395   0.79397   1.000
    Zr8     Zr   0.24989   0.24988   0.24987   1.000
    Zr9     Zr   0.75010   0.75012   0.75011   1.000
    O10     O    0.22843   0.31501   0.22841   1.000
    O11     O    0.22846   0.22843   0.31499   1.000
    O12     O    0.77153   0.77157   0.68499   1.000
    O13     O    0.77156   0.68498   0.77156   1.000
    O14     O    0.31503   0.22842   0.22845   1.000
    O15     O    0.22793   0.22796   0.22794   1.000
    O16     O    0.68496   0.77158   0.77150   1.000
    O17     O    0.77207   0.77204   0.77204   1.000
    N18     N    0.50000   0.00000   0.49999   1.000
    O19     O    0.62187   0.91478   0.54782   1.000
    O20     O    0.54780   0.91472   0.62185   1.000
    O21     O    0.45219   0.08528   0.37810   1.000
    O22     O    0.37813   0.08522   0.45215   1.000
    N23     N    1.00000   0.50000   0.49998   1.000
    O24     O    0.91471   0.62189   0.54783   1.000
    O25     O    0.08528   0.37810   0.45215   1.000
    O26     O    0.08525   0.45218   0.37809   1.000
    O27     O    0.91475   0.54782   0.62189   1.000
    N28     N    0.50000   1.00000   0.99999   1.000
    O29     O    0.62231   0.91532   0.91531   1.000
    O30     O    0.45202   0.08510   0.08514   1.000
    O31     O    0.37768   0.08468   0.08467   1.000
    O32     O    0.54798   0.91489   0.91483   1.000
    N33     N    0.49999   0.50000   0.99999   1.000
    O34     O    0.62189   0.54783   0.91477   1.000
    O35     O    0.54781   0.62190   0.91467   1.000
    O36     O    0.37810   0.45217   0.08521   1.000
    O37     O    0.45218   0.37810   0.08530   1.000
    N38     N    0.99999   0.00000   0.49998   1.000
    O39     O    0.91538   0.91529   0.62230   1.000
    O40     O    0.91486   0.91488   0.54801   1.000
    O41     O    0.08513   0.08512   0.45196   1.000
    O42     O    0.08461   0.08471   0.37767   1.000
    N43     N    0.99999   0.50000   0.99999   1.000
    O44     O    0.91489   0.54800   0.91487   1.000
    O45     O    0.91537   0.62231   0.91530   1.000
    O46     O    0.08510   0.45200   0.08511   1.000
    O47     O    0.08462   0.37769   0.08468   1.000
loop_
    _geom_bond_atom_site_label_1
    _geom_bond_atom_site_label_2
    _geom_bond_distance
    _geom_bond_site_symmetry_2
    _ccdc_geom_bond_type
    Zr1    O10       0.98331      .   S
    Zr8    O10       0.98331      .   S
    Zr8    O11       0.98326      .   S
    Zr2    O11       0.98326      .   S
    Zr6    O12       0.98326      .   S
    Zr9    O12       0.98326      .   S
    Zr9    O13       0.98331      .   S
    Zr4    O13       0.98331      .   S
    Zr8    O14       0.98338      .   S
    Zr0    O14       0.98338      .   S
    Zr8    O15       0.98496      .   S
    Zr3    O15       0.98496      .   S
    Zr9    O16       0.98337      .   S
    Zr5    O16       0.98337      .   S
    Zr9    O17       0.98497      .   S
    Zr7    O17       0.98497      .   S
    N18    O19       2.31793  1_545   S
    Zr6    O19       3.30220      .   S
    N18    O20       2.31782  1_545   S
    Zr5    O20       3.30166      .   S
    N18    O21       2.31814      .   S
    Zr0    O21       3.30198      .   S
    N18    O22       2.31792      .   S
    Zr2    O22       3.30215      .   S
    N23    O24       2.31801      .   S
    Zr6    O24       3.30227      .   S
    N23    O25       2.31794  1_655   S
    Zr2    O25       3.30218      .   S
    N23    O26       2.31803  1_655   S
    Zr1    O26       3.30239      .   S
    N23    O27       2.31818      .   S
    Zr4    O27       3.30247      .   S
    N28    O29       2.32137      .   S
    Zr7    O29       3.30727      .   S
    N28    O30       2.31780  1_566   S
    Zr0    O30       3.30235      .   S
    N28    O31       2.32136  1_566   S
    Zr3    O31       3.30730      .   S
    N28    O32       2.31798      .   S
    Zr5    O32       3.30289      .   S
    N33    O34       2.31780      .   S
    Zr4    O34       3.30202      .   S
    N33    O35       2.31777      .   S
    Zr5    O35       3.30186      .   S
    N33    O36       2.31781  1_556   S
    Zr1    O36       3.30202      .   S
    N33    O37       2.31776  1_556   S
    Zr0    O37       3.30184      .   S
    N38    O39       2.32112  1_545   S
    Zr7    O39       3.30673      .   S
    N38    O40       2.31742  1_545   S
    Zr6    O40       3.30192      .   S
    N38    O41       2.31744  1_655   S
    Zr2    O41       3.30195      .   S
    N38    O42       2.32109  1_655   S
    Zr3    O42       3.30670      .   S
    N43    O44       2.31767      .   S
    Zr4    O44       3.30227      .   S
    N43    O45       2.32130      .   S
    Zr7    O45       3.30695      .   S
    N43    O46       2.31764  1_656   S
    Zr1    O46       3.30235      .   S
    N43    O47       2.32132  1_656   S
    Zr3    O47       3.30700      .   S
