# CIF file generated by openbabel 2.4.90, see http://openbabel.sf.net
data_I
_chemical_name_common ''
_cell_length_a 20.196
_cell_length_b 23.101
_cell_length_c 14.88
_cell_angle_alpha 91.161
_cell_angle_beta 90
_cell_angle_gamma 89.958
_space_group_name_H-M_alt 'P 1'
_space_group_name_Hall 'P 1'
loop_
    _symmetry_equiv_pos_as_xyz
    x,y,z
loop_
    _atom_site_label
    _atom_site_type_symbol
    _atom_site_fract_x
    _atom_site_fract_y
    _atom_site_fract_z
    _atom_site_occupancy
    Zr0     Zr   0.46399   0.37747   0.12960   1.000
    Zr1     Zr   0.46400   0.87747   0.12960   1.000
    Zr2     Zr   0.96400   0.37747   0.12960   1.000
    Zr3     Zr   0.96400   0.87747   0.12960   1.000
    Zr4     Zr   0.05862   0.37023   0.30800   1.000
    Zr5     Zr   0.05862   0.87023   0.30800   1.000
    Zr6     Zr   0.55862   0.37023   0.30800   1.000
    Zr7     Zr   0.55863   0.87023   0.30800   1.000
    Zr8     Zr   0.21399   0.37255   0.37035   1.000
    Zr9     Zr   0.21399   0.87254   0.37035   1.000
    Zr10    Zr   0.71399   0.37255   0.37035   1.000
    Zr11    Zr   0.71400   0.87254   0.37035   1.000
    Zr12    Zr   0.30861   0.37979   0.19126   1.000
    Zr13    Zr   0.30862   0.87979   0.19126   1.000
    Zr14    Zr   0.80862   0.37979   0.19126   1.000
    Zr15    Zr   0.80862   0.87979   0.19126   1.000
    Zr16    Zr   0.03602   0.12252   0.87035   1.000
    Zr17    Zr   0.03602   0.62252   0.87035   1.000
    Zr18    Zr   0.53602   0.12252   0.87035   1.000
    Zr19    Zr   0.53603   0.62252   0.87035   1.000
    Zr20    Zr   0.44139   0.12976   0.69128   1.000
    Zr21    Zr   0.44139   0.62976   0.69128   1.000
    Zr22    Zr   0.94139   0.12976   0.69128   1.000
    Zr23    Zr   0.94140   0.62976   0.69128   1.000
    Zr24    Zr   0.28602   0.12745   0.62962   1.000
    Zr25    Zr   0.28603   0.62744   0.62962   1.000
    Zr26    Zr   0.78603   0.12745   0.62962   1.000
    Zr27    Zr   0.78603   0.62744   0.62962   1.000
    Zr28    Zr   0.19139   0.12020   0.80871   1.000
    Zr29    Zr   0.19140   0.62020   0.80871   1.000
    Zr30    Zr   0.69140   0.12020   0.80871   1.000
    Zr31    Zr   0.69140   0.62020   0.80871   1.000
    Zr32    Zr   0.00000   0.25000   0.00000   1.000
    Zr33    Zr   0.00001   0.74999   0.00000   1.000
    Zr34    Zr   0.50001   0.25000   0.00000   1.000
    Zr35    Zr   0.50001   0.74999   0.00000   1.000
    Zr36    Zr   0.25000   1.00000   0.49999   1.000
    Zr37    Zr   0.25001   0.49999   0.49999   1.000
    Zr38    Zr   0.75001   1.00000   0.49999   1.000
    Zr39    Zr   0.75001   0.49999   0.49999   1.000
    Zr40    Zr   0.00000   0.00000   0.00000   1.000
    Zr41    Zr   0.00000   0.50000   0.00000   1.000
    Zr42    Zr   0.50000   0.00000   0.00000   1.000
    Zr43    Zr   0.50001   0.50000   0.00000   1.000
    Zr44    Zr   0.25000   0.25000   0.49999   1.000
    Zr45    Zr   0.25001   0.74999   0.49999   1.000
    Zr46    Zr   0.75001   0.25000   0.49999   1.000
    Zr47    Zr   0.75001   0.74999   0.49999   1.000
    N48     N    0.68194   0.72519   0.68031   1.000
    O49     O    0.69030   0.68637   0.71513   1.000
    O50     O    0.71396   0.68818   0.67035   1.000
    O51     O    0.70212   0.74004   0.61969   1.000
    N52     N    0.36384   0.96447   0.05776   1.000
    O53     O    0.33761   0.93834   0.10115   1.000
    O54     O    0.41288   0.96928   0.04462   1.000
    O55     O    0.40388   0.93865   0.07702   1.000
    N56     N    0.86384   0.46489   0.05776   1.000
    O57     O    0.83761   0.43855   0.10115   1.000
    O58     O    0.90388   0.43886   0.07702   1.000
    O59     O    0.91288   0.46949   0.04462   1.000
    N60     N    0.85882   0.28880   0.05204   1.000
    O61     O    0.90353   0.27188   0.02613   1.000
    O62     O    0.88931   0.32022   0.08642   1.000
    O63     O    0.85047   0.32080   0.10184   1.000
    N64     N    0.56806   0.97516   0.18026   1.000
    O65     O    0.55971   0.93637   0.21492   1.000
    O66     O    0.53605   0.93818   0.17032   1.000
    O67     O    0.54789   0.99003   0.11966   1.000
    N68     N    0.55047   0.37113   0.96679   1.000
    O69     O    0.52873   0.33380   0.98846   1.000
    O70     O    0.51973   0.36567   0.02086   1.000
    O71     O    0.53909   0.41690   0.97367   1.000
    N72     N    0.23850   0.51048   0.70760   1.000
    O73     O    0.25097   0.55342   0.68981   1.000
    O74     O    0.22732   0.55161   0.73458   1.000
    O75     O    0.24419   0.50021   0.63837   1.000
    N76     N    0.41962   0.91262   0.32753   1.000
    O77     O    0.38820   0.90159   0.27304   1.000
    O78     O    0.42705   0.90101   0.25763   1.000
    O79     O    0.46832   0.90078   0.33186   1.000
    N80     N    0.83035   0.66257   0.82753   1.000
    O81     O    0.82294   0.65095   0.75764   1.000
    O82     O    0.86179   0.65153   0.77306   1.000
    O83     O    0.78167   0.65074   0.83204   1.000
    N84     N    0.33034   0.16258   0.82753   1.000
    O85     O    0.28166   0.15074   0.83204   1.000
    O86     O    0.36178   0.15153   0.77306   1.000
    O87     O    0.32294   0.15095   0.75764   1.000
    N88     N    0.30051   0.87880   0.53311   1.000
    O89     O    0.28911   0.83305   0.52625   1.000
    O90     O    0.26975   0.88430   0.47905   1.000
    O91     O    0.27876   0.91616   0.51146   1.000
    N92     N    0.80051   0.37881   0.53310   1.000
    O93     O    0.78911   0.33305   0.52625   1.000
    O94     O    0.76975   0.38430   0.47905   1.000
    O95     O    0.77876   0.41616   0.51146   1.000
    N96     N    0.80051   0.87880   0.53311   1.000
    O97     O    0.78911   0.83305   0.52625   1.000
    O98     O    0.76976   0.88430   0.47905   1.000
    O99     O    0.77876   0.91616   0.51146   1.000
    N100    N    0.86384   0.96447   0.05776   1.000
    O101    O    0.83761   0.93834   0.10115   1.000
    O102    O    0.90389   0.93865   0.07702   1.000
    O103    O    0.91289   0.96928   0.04462   1.000
    N104    N    0.16967   0.33742   0.17242   1.000
    O105    O    0.17707   0.34904   0.24232   1.000
    O106    O    0.13823   0.34846   0.22673   1.000
    O107    O    0.21835   0.34925   0.16793   1.000
    N108    N    0.14119   0.21119   0.94783   1.000
    O109    O    0.11070   0.17977   0.91340   1.000
    O110    O    0.14954   0.17919   0.89799   1.000
    O111    O    0.09648   0.22811   0.97380   1.000
    N112    N    0.44954   0.12886   0.03317   1.000
    O113    O    0.48028   0.13432   0.97909   1.000
    O114    O    0.47128   0.16619   0.01151   1.000
    O115    O    0.46092   0.08309   0.02630   1.000
    N116    N    0.48842   0.73948   0.79235   1.000
    O117    O    0.50092   0.69654   0.81015   1.000
    O118    O    0.47726   0.69835   0.76538   1.000
    O119    O    0.49416   0.74977   0.86157   1.000
    N120    N    0.05047   0.87113   0.96678   1.000
    O121    O    0.02873   0.83380   0.98846   1.000
    O122    O    0.01973   0.86567   0.02086   1.000
    O123    O    0.03909   0.91690   0.97367   1.000
    N124    N    0.31808   0.77480   0.31967   1.000
    O125    O    0.29790   0.75994   0.38028   1.000
    O126    O    0.28606   0.81181   0.32962   1.000
    O127    O    0.30972   0.81362   0.28485   1.000
    N128    N    0.08039   0.08737   0.67243   1.000
    O129    O    0.03169   0.09921   0.66793   1.000
    O130    O    0.11181   0.09840   0.72692   1.000
    O131    O    0.07297   0.09898   0.74233   1.000
    N132    N    0.66967   0.33742   0.17242   1.000
    O133    O    0.67708   0.34904   0.24232   1.000
    O134    O    0.63823   0.34846   0.22673   1.000
    O135    O    0.71835   0.34925   0.16793   1.000
    N136    N    0.60879   0.46134   0.44767   1.000
    O137    O    0.65351   0.47820   0.47368   1.000
    O138    O    0.60045   0.42929   0.39771   1.000
    O139    O    0.63929   0.42987   0.41330   1.000
    N140    N    0.93196   0.02483   0.81970   1.000
    O141    O    0.95212   0.00996   0.88032   1.000
    O142    O    0.94031   0.06362   0.78487   1.000
    O143    O    0.96397   0.06181   0.82964   1.000
    N144    N    0.11387   0.78521   0.44233   1.000
    O145    O    0.15390   0.81121   0.42302   1.000
    O146    O    0.16290   0.78057   0.45543   1.000
    O147    O    0.08763   0.81152   0.39871   1.000
    N148    N    0.61387   0.28521   0.44233   1.000
    O149    O    0.66290   0.28058   0.45543   1.000
    O150    O    0.65390   0.31121   0.42302   1.000
    O151    O    0.58763   0.31152   0.39871   1.000
    N152    N    0.11386   0.28521   0.44233   1.000
    O153    O    0.16290   0.28058   0.45543   1.000
    O154    O    0.15389   0.31121   0.42302   1.000
    O155    O    0.08763   0.31152   0.39871   1.000
    N156    N    0.69951   0.62118   0.46685   1.000
    O157    O    0.73027   0.61569   0.52091   1.000
    O158    O    0.72126   0.58383   0.48850   1.000
    O159    O    0.71091   0.66694   0.47370   1.000
    N160    N    0.06806   0.47517   0.18026   1.000
    O161    O    0.04789   0.49003   0.11966   1.000
    O162    O    0.05970   0.43637   0.21492   1.000
    O163    O    0.03604   0.43818   0.17032   1.000
    N164    N    0.61387   0.78521   0.44233   1.000
    O165    O    0.58763   0.81152   0.39871   1.000
    O166    O    0.66291   0.78057   0.45543   1.000
    O167    O    0.65390   0.81121   0.42302   1.000
    N168    N    0.08039   0.58737   0.67243   1.000
    O169    O    0.03169   0.59921   0.66793   1.000
    O170    O    0.11181   0.59840   0.72692   1.000
    O171    O    0.07297   0.59898   0.74233   1.000
    N172    N    0.10879   0.96134   0.44767   1.000
    O173    O    0.15351   0.97820   0.47368   1.000
    O174    O    0.10045   0.92929   0.39771   1.000
    O175    O    0.13929   0.92987   0.41330   1.000
    N176    N    0.81808   0.27480   0.31966   1.000
    O177    O    0.79790   0.25995   0.38028   1.000
    O178    O    0.80972   0.31362   0.28485   1.000
    O179    O    0.78606   0.31181   0.32962   1.000
    N180    N    0.81808   0.77480   0.31966   1.000
    O181    O    0.79791   0.75994   0.38028   1.000
    O182    O    0.80972   0.81362   0.28485   1.000
    O183    O    0.78607   0.81181   0.32962   1.000
    N184    N    0.91962   0.41262   0.32753   1.000
    O185    O    0.96832   0.40078   0.33186   1.000
    O186    O    0.88820   0.40159   0.27304   1.000
    O187    O    0.92705   0.40101   0.25763   1.000
    N188    N    0.16967   0.83741   0.17242   1.000
    O189    O    0.17708   0.84904   0.24232   1.000
    O190    O    0.13824   0.84846   0.22673   1.000
    O191    O    0.21835   0.84924   0.16793   1.000
    N192    N    0.51160   0.76050   0.20753   1.000
    O193    O    0.50586   0.75022   0.13826   1.000
    O194    O    0.52276   0.80163   0.23437   1.000
    O195    O    0.49910   0.80344   0.18977   1.000
    N196    N    0.30050   0.37881   0.53311   1.000
    O197    O    0.27875   0.41616   0.51146   1.000
    O198    O    0.26975   0.38430   0.47905   1.000
    O199    O    0.28910   0.33305   0.52625   1.000
    N200    N    0.73850   0.01048   0.70760   1.000
    O201    O    0.74420   0.00021   0.63837   1.000
    O202    O    0.75097   0.05342   0.68981   1.000
    O203    O    0.72732   0.05161   0.73458   1.000
    N204    N    0.06806   0.97516   0.18026   1.000
    O205    O    0.04789   0.99003   0.11966   1.000
    O206    O    0.05970   0.93637   0.21492   1.000
    O207    O    0.03605   0.93818   0.17032   1.000
    N208    N    0.93196   0.52482   0.81970   1.000
    O209    O    0.95212   0.50996   0.88032   1.000
    O210    O    0.94032   0.56362   0.78487   1.000
    O211    O    0.96397   0.56181   0.82964   1.000
    N212    N    0.33035   0.66257   0.82753   1.000
    O213    O    0.28166   0.65074   0.83204   1.000
    O214    O    0.32294   0.65095   0.75764   1.000
    O215    O    0.36178   0.65153   0.77306   1.000
    N216    N    0.14120   0.71119   0.94783   1.000
    O217    O    0.09649   0.72811   0.97380   1.000
    O218    O    0.11070   0.67977   0.91340   1.000
    O219    O    0.14955   0.67919   0.89799   1.000
    N220    N    0.64120   0.21119   0.94783   1.000
    O221    O    0.59649   0.22811   0.97380   1.000
    O222    O    0.61070   0.17977   0.91340   1.000
    O223    O    0.64954   0.17919   0.89799   1.000
    N224    N    0.18194   0.72519   0.68031   1.000
    O225    O    0.20212   0.74004   0.61969   1.000
    O226    O    0.19030   0.68637   0.71513   1.000
    O227    O    0.21395   0.68818   0.67035   1.000
    N228    N    0.35882   0.78880   0.05204   1.000
    O229    O    0.40353   0.77188   0.02613   1.000
    O230    O    0.38932   0.82022   0.08642   1.000
    O231    O    0.35047   0.82080   0.10184   1.000
    N232    N    0.89123   0.53864   0.55229   1.000
    O233    O    0.89957   0.57070   0.60208   1.000
    O234    O    0.86073   0.57012   0.58667   1.000
    O235    O    0.84651   0.52179   0.52627   1.000
    N236    N    0.63618   0.53510   0.94222   1.000
    O237    O    0.58714   0.53050   0.95536   1.000
    O238    O    0.59614   0.56113   0.92295   1.000
    O239    O    0.66241   0.56144   0.89883   1.000
    N240    N    0.68194   0.22519   0.68031   1.000
    O241    O    0.70211   0.24004   0.61969   1.000
    O242    O    0.69030   0.18637   0.71513   1.000
    O243    O    0.71395   0.18818   0.67035   1.000
    N244    N    0.38615   0.21478   0.55764   1.000
    O245    O    0.33711   0.21942   0.54454   1.000
    O246    O    0.34611   0.18878   0.57695   1.000
    O247    O    0.41238   0.18847   0.60109   1.000
    N248    N    0.98843   0.73948   0.79235   1.000
    O249    O    0.00092   0.69654   0.81015   1.000
    O250    O    0.97726   0.69835   0.76538   1.000
    O251    O    0.99416   0.74977   0.86157   1.000
    N252    N    0.26152   0.48951   0.29237   1.000
    O253    O    0.24904   0.44657   0.31016   1.000
    O254    O    0.27270   0.44838   0.26538   1.000
    O255    O    0.25582   0.49978   0.36159   1.000
    N256    N    0.19951   0.62118   0.46685   1.000
    O257    O    0.23026   0.61569   0.52091   1.000
    O258    O    0.22126   0.58383   0.48850   1.000
    O259    O    0.21091   0.66694   0.47370   1.000
    N260    N    0.63618   0.03510   0.94221   1.000
    O261    O    0.66241   0.06144   0.89883   1.000
    O262    O    0.59613   0.06114   0.92295   1.000
    O263    O    0.58713   0.03051   0.95536   1.000
    N264    N    0.56806   0.47517   0.18026   1.000
    O265    O    0.53605   0.43818   0.17032   1.000
    O266    O    0.55970   0.43637   0.21492   1.000
    O267    O    0.54790   0.49003   0.11966   1.000
    N268    N    0.83035   0.16258   0.82753   1.000
    O269    O    0.78166   0.15074   0.83204   1.000
    O270    O    0.82294   0.15095   0.75764   1.000
    O271    O    0.86178   0.15153   0.77306   1.000
    N272    N    0.58039   0.08737   0.67243   1.000
    O273    O    0.53169   0.09921   0.66793   1.000
    O274    O    0.61181   0.09840   0.72692   1.000
    O275    O    0.57297   0.09898   0.74233   1.000
    N276    N    0.60880   0.96134   0.44767   1.000
    O277    O    0.63930   0.92987   0.41330   1.000
    O278    O    0.60046   0.92929   0.39771   1.000
    O279    O    0.65351   0.97820   0.47368   1.000
    N280    N    0.51159   0.26051   0.20753   1.000
    O281    O    0.52276   0.30163   0.23437   1.000
    O282    O    0.49910   0.30344   0.18977   1.000
    O283    O    0.50586   0.25022   0.13826   1.000
    N284    N    0.66967   0.83741   0.17242   1.000
    O285    O    0.71836   0.84924   0.16793   1.000
    O286    O    0.67708   0.84904   0.24232   1.000
    O287    O    0.63824   0.84846   0.22673   1.000
    N288    N    0.18194   0.22519   0.68031   1.000
    O289    O    0.20211   0.24004   0.61969   1.000
    O290    O    0.19029   0.18637   0.71513   1.000
    O291    O    0.21395   0.18818   0.67035   1.000
    N292    N    0.76152   0.48951   0.29237   1.000
    O293    O    0.75582   0.49978   0.36159   1.000
    O294    O    0.77270   0.44838   0.26538   1.000
    O295    O    0.74904   0.44657   0.31016   1.000
    N296    N    0.23850   0.01048   0.70760   1.000
    O297    O    0.25097   0.05342   0.68981   1.000
    O298    O    0.22731   0.05161   0.73458   1.000
    O299    O    0.24419   0.00021   0.63837   1.000
    N300    N    0.43195   0.52482   0.81970   1.000
    O301    O    0.45212   0.50996   0.88032   1.000
    O302    O    0.44031   0.56362   0.78487   1.000
    O303    O    0.46397   0.56181   0.82964   1.000
    N304    N    0.64120   0.71119   0.94783   1.000
    O305    O    0.59649   0.72811   0.97380   1.000
    O306    O    0.61071   0.67977   0.91340   1.000
    O307    O    0.64955   0.67919   0.89799   1.000
    N308    N    0.35882   0.28880   0.05204   1.000
    O309    O    0.40353   0.27188   0.02613   1.000
    O310    O    0.38931   0.32022   0.08642   1.000
    O311    O    0.35047   0.32080   0.10184   1.000
    N312    N    0.85882   0.78880   0.05204   1.000
    O313    O    0.85048   0.82080   0.10184   1.000
    O314    O    0.88932   0.82022   0.08642   1.000
    O315    O    0.90353   0.77188   0.02613   1.000
    N316    N    0.91963   0.91262   0.32753   1.000
    O317    O    0.96833   0.90078   0.33186   1.000
    O318    O    0.88821   0.90159   0.27304   1.000
    O319    O    0.92705   0.90101   0.25763   1.000
    N320    N    0.94954   0.12886   0.03317   1.000
    O321    O    0.98028   0.13432   0.97909   1.000
    O322    O    0.97128   0.16619   0.01151   1.000
    O323    O    0.96092   0.08309   0.02630   1.000
    N324    N    0.73850   0.51048   0.70760   1.000
    O325    O    0.74420   0.50021   0.63837   1.000
    O326    O    0.75098   0.55342   0.68981   1.000
    O327    O    0.72732   0.55161   0.73458   1.000
    N328    N    0.58040   0.58737   0.67243   1.000
    O329    O    0.61182   0.59840   0.72692   1.000
    O330    O    0.57297   0.59898   0.74233   1.000
    O331    O    0.53170   0.59921   0.66793   1.000
    N332    N    0.48842   0.23949   0.79235   1.000
    O333    O    0.50091   0.19655   0.81015   1.000
    O334    O    0.47725   0.19836   0.76538   1.000
    O335    O    0.49415   0.24977   0.86157   1.000
    N336    N    0.13617   0.03510   0.94221   1.000
    O337    O    0.16240   0.06144   0.89883   1.000
    O338    O    0.09613   0.06114   0.92295   1.000
    O339    O    0.08713   0.03051   0.95536   1.000
    N340    N    0.19951   0.12119   0.46685   1.000
    O341    O    0.22126   0.08383   0.48850   1.000
    O342    O    0.23026   0.11569   0.52091   1.000
    O343    O    0.21091   0.16694   0.47370   1.000
    N344    N    0.43195   0.02483   0.81970   1.000
    O345    O    0.45212   0.00996   0.88032   1.000
    O346    O    0.44031   0.06362   0.78487   1.000
    O347    O    0.46397   0.06181   0.82964   1.000
    N348    N    0.13618   0.53510   0.94222   1.000
    O349    O    0.16241   0.56144   0.89883   1.000
    O350    O    0.09614   0.56113   0.92295   1.000
    O351    O    0.08713   0.53050   0.95536   1.000
    N352    N    0.55048   0.87113   0.96679   1.000
    O353    O    0.53909   0.91690   0.97367   1.000
    O354    O    0.52874   0.83380   0.98846   1.000
    O355    O    0.51973   0.86567   0.02086   1.000
    N356    N    0.36383   0.46489   0.05776   1.000
    O357    O    0.41288   0.46949   0.04462   1.000
    O358    O    0.40388   0.43886   0.07702   1.000
    O359    O    0.33761   0.43855   0.10115   1.000
    N360    N    0.38615   0.71477   0.55764   1.000
    O361    O    0.41239   0.68847   0.60109   1.000
    O362    O    0.33711   0.71941   0.54454   1.000
    O363    O    0.34612   0.68878   0.57695   1.000
    N364    N    0.39122   0.03865   0.55229   1.000
    O365    O    0.39956   0.07070   0.60208   1.000
    O366    O    0.36072   0.07012   0.58667   1.000
    O367    O    0.34650   0.02179   0.52627   1.000
    N368    N    0.39122   0.53864   0.55229   1.000
    O369    O    0.39956   0.57070   0.60208   1.000
    O370    O    0.36072   0.57012   0.58667   1.000
    O371    O    0.34651   0.52179   0.52627   1.000
    N372    N    0.69951   0.12119   0.46685   1.000
    O373    O    0.73026   0.11569   0.52091   1.000
    O374    O    0.72126   0.08383   0.48850   1.000
    O375    O    0.71091   0.16694   0.47370   1.000
    N376    N    0.26152   0.98951   0.29237   1.000
    O377    O    0.27270   0.94838   0.26538   1.000
    O378    O    0.24904   0.94657   0.31016   1.000
    O379    O    0.25582   0.99979   0.36159   1.000
    N380    N    0.10879   0.46134   0.44766   1.000
    O381    O    0.15351   0.47820   0.47368   1.000
    O382    O    0.10045   0.42929   0.39771   1.000
    O383    O    0.13929   0.42987   0.41330   1.000
    N384    N    0.89122   0.03865   0.55229   1.000
    O385    O    0.84651   0.02179   0.52627   1.000
    O386    O    0.89956   0.07070   0.60208   1.000
    O387    O    0.86072   0.07012   0.58667   1.000
    N388    N    0.94955   0.62885   0.03317   1.000
    O389    O    0.98029   0.63432   0.97909   1.000
    O390    O    0.97128   0.66619   0.01151   1.000
    O391    O    0.96093   0.58309   0.02630   1.000
    N392    N    0.31807   0.27480   0.31966   1.000
    O393    O    0.28606   0.31181   0.32962   1.000
    O394    O    0.30972   0.31362   0.28485   1.000
    O395    O    0.29790   0.25995   0.38028   1.000
    N396    N    0.76152   0.98951   0.29237   1.000
    O397    O    0.77270   0.94838   0.26538   1.000
    O398    O    0.74905   0.94657   0.31016   1.000
    O399    O    0.75582   0.99979   0.36159   1.000
    N400    N    0.05047   0.37113   0.96679   1.000
    O401    O    0.03909   0.41690   0.97367   1.000
    O402    O    0.02873   0.33380   0.98846   1.000
    O403    O    0.01973   0.36567   0.02086   1.000
    N404    N    0.88615   0.21478   0.55764   1.000
    O405    O    0.83711   0.21942   0.54454   1.000
    O406    O    0.84612   0.18878   0.57695   1.000
    O407    O    0.91239   0.18847   0.60109   1.000
    N408    N    0.01159   0.26051   0.20753   1.000
    O409    O    0.99910   0.30344   0.18977   1.000
    O410    O    0.02276   0.30163   0.23437   1.000
    O411    O    0.00585   0.25022   0.13826   1.000
    N412    N    0.44954   0.62885   0.03316   1.000
    O413    O    0.46093   0.58309   0.02630   1.000
    O414    O    0.47128   0.66619   0.01151   1.000
    O415    O    0.48029   0.63432   0.97909   1.000
    N416    N    0.98842   0.23949   0.79235   1.000
    O417    O    0.00091   0.19655   0.81015   1.000
    O418    O    0.97726   0.19836   0.76538   1.000
    O419    O    0.99416   0.24977   0.86157   1.000
    N420    N    0.88615   0.71477   0.55764   1.000
    O421    O    0.91239   0.68847   0.60109   1.000
    O422    O    0.83712   0.71941   0.54454   1.000
    O423    O    0.84612   0.68878   0.57695   1.000
    N424    N    0.01159   0.76050   0.20753   1.000
    O425    O    0.99910   0.80344   0.18977   1.000
    O426    O    0.02276   0.80163   0.23437   1.000
    O427    O    0.00586   0.75022   0.13826   1.000
    N428    N    0.41962   0.41262   0.32753   1.000
    O429    O    0.42704   0.40101   0.25763   1.000
    O430    O    0.38820   0.40159   0.27304   1.000
    O431    O    0.46832   0.40078   0.33186   1.000
loop_
    _geom_bond_atom_site_label_1
    _geom_bond_atom_site_label_2
    _geom_bond_distance
    _geom_bond_site_symmetry_2
    _ccdc_geom_bond_type
    N48    O49       1.05819      .   S
    Zr31   O49       2.08864      .   S
    N48    O50       1.07932      .   S
    Zr27   O50       2.10166      .   S
    N48    O51       1.05359      .   S
    Zr47   O51       2.04397      .   S
    N52    O53       1.03835      .   S
    Zr13   O53       2.01123      .   S
    N52    O54       1.01622      .   S
    Zr42   O54       2.01522  1_545   S
    N52    O55       1.04801      .   S
    Zr1    O55       2.03123      .   S
    N56    O57       1.04119      .   S
    Zr14   O57       2.01449      .   S
    N56    O58       1.05076      .   S
    Zr2    O58       2.03459      .   S
    N56    O59       1.01567      .   S
    Zr41   O59       2.01342  1_455   S
    N60    O61       1.05361      .   S
    Zr32   O61       2.04784  1_455   S
    N60    O62       1.07398      .   S
    Zr2    O62       2.09881      .   S
    N60    O63       1.04952      .   S
    Zr14   O63       2.06562      .   S
    N64    O65       1.05676      .   S
    Zr7    O65       2.08301      .   S
    N64    O66       1.07967      .   S
    Zr1    O66       2.10242      .   S
    N64    O67       1.05329      .   S
    Zr42   O67       2.04328  1_545   S
    N68    O69       1.02583      .   S
    Zr34   O69       2.03206  1_554   S
    N68    O70       1.02622  1_556   S
    Zr0    O70       1.98524      .   S
    N68    O71       1.08455      .   S
    Zr43   O71       2.10448  1_554   S
    N72    O73       1.06228      .   S
    Zr25   O73       2.07162      .   S
    N72    O74       1.04837      .   S
    Zr29   O74       2.04477      .   S
    N72    O75       1.05863      .   S
    Zr37   O75       2.06236      .   S
    N76    O77       1.05680      .   S
    Zr13   O77       2.07222      .   S
    N76    O78       1.07933      .   S
    Zr1    O78       2.10692      .   S
    N76    O79       1.02308      .   S
    Zr7    O79       1.98451      .   S
    N80    O81       1.07924      .   S
    Zr27   O81       2.10667      .   S
    N80    O82       1.05669      .   S
    Zr23   O82       2.07186      .   S
    N80    O83       1.02325      .   S
    Zr31   O83       1.98332      .   S
    N84    O85       1.02326      .   S
    Zr28   O85       1.98333      .   S
    N84    O86       1.05670      .   S
    Zr20   O86       2.07186      .   S
    N84    O87       1.07924      .   S
    Zr24   O87       2.10667      .   S
    N88    O89       1.08467      .   S
    Zr45   O89       2.10462      .   S
    N88    O90       1.02606      .   S
    Zr9    O90       1.98517      .   S
    N88    O91       1.02574      .   S
    Zr36   O91       2.03201      .   S
    N92    O93       1.08468      .   S
    Zr46   O93       2.10463      .   S
    N92    O94       1.02606      .   S
    Zr10   O94       1.98517      .   S
    N92    O95       1.02569      .   S
    Zr39   O95       2.03184      .   S
    N96    O97       1.08467      .   S
    Zr47   O97       2.10462      .   S
    N96    O98       1.02606      .   S
    Zr11   O98       1.98517      .   S
    N96    O99       1.02574      .   S
    Zr38   O99       2.03201      .   S
    N100   O101      1.03835      .   S
    Zr15   O101      2.01122      .   S
    N100   O102      1.04801      .   S
    Zr3    O102      2.03122      .   S
    N100   O103      1.01618      .   S
    Zr40   O103      2.01511  1_445   S
    N104   O105      1.07935      .   S
    Zr8    O105      2.10677      .   S
    N104   O106      1.05482      .   S
    Zr4    O106      2.06744      .   S
    N104   O107      1.02325      .   S
    Zr12   O107      1.98335      .   S
    N108   O109      1.07435      .   S
    Zr16   O109      2.09825      .   S
    N108   O110      1.05002      .   S
    Zr28   O110      2.06425      .   S
    N108   O111      1.05395      .   S
    Zr32   O111      2.04815  1_554   S
    N112   O113      1.02616  1_554   S
    Zr18   O113      1.98529      .   S
    N112   O114      1.02576      .   S
    Zr34   O114      2.03207      .   S
    N112   O115      1.08451      .   S
    Zr42   O115      2.10434      .   S
    N116   O117      1.06211      .   S
    Zr19   O117      2.07119      .   S
    N116   O118      1.04854      .   S
    Zr21   O118      2.04510      .   S
    N116   O119      1.05874      .   S
    Zr35   O119      2.06316  1_554   S
    N120   O121      1.02583      .   S
    Zr33   O121      2.03204  1_554   S
    N120   O122      1.02620  1_556   S
    Zr3    O122      1.98517  1_655   S
    N120   O123      1.08460      .   S
    Zr40   O123      2.10464  1_544   S
    N124   O125      1.05362      .   S
    Zr45   O125      2.04405      .   S
    N124   O126      1.07932      .   S
    Zr9    O126      2.10165      .   S
    N124   O127      1.05820      .   S
    Zr13   O127      2.08863      .   S
    N128   O129      1.02322      .   S
    Zr22   O129      1.98312  1_655   S
    N128   O130      1.05689      .   S
    Zr28   O130      2.07227      .   S
    N128   O131      1.07936      .   S
    Zr16   O131      2.10682      .   S
    N132   O133      1.07935      .   S
    Zr10   O133      2.10677      .   S
    N132   O134      1.05482      .   S
    Zr6    O134      2.06745      .   S
    N132   O135      1.02325      .   S
    Zr14   O135      1.98334      .   S
    N136   O137      1.05424      .   S
    Zr39   O137      2.04902      .   S
    N136   O138      1.05215      .   S
    Zr6    O138      2.07002      .   S
    N136   O139      1.07416      .   S
    Zr10   O139      2.09780      .   S
    N140   O141      1.05339      .   S
    Zr40   O141      2.04350  1_454   S
    N140   O142      1.05802      .   S
    Zr22   O142      2.08820      .   S
    N140   O143      1.07965      .   S
    Zr16   O143      2.10231  1_455   S
    N144   O145      1.05101      .   S
    Zr9    O145      2.03520      .   S
    N144   O146      1.01533      .   S
    Zr45   O146      2.01262      .   S
    N144   O147      1.04257      .   S
    Zr5    O147      2.01924      .   S
    N148   O149      1.01533      .   S
    Zr46   O149      2.01262      .   S
    N148   O150      1.05101      .   S
    Zr10   O150      2.03521      .   S
    N148   O151      1.04257      .   S
    Zr6    O151      2.01925      .   S
    N152   O153      1.01533      .   S
    Zr44   O153      2.01261      .   S
    N152   O154      1.05101      .   S
    Zr8    O154      2.03521      .   S
    N152   O155      1.04257      .   S
    Zr4    O155      2.01924      .   S
    N156   O157      1.02613      .   S
    Zr27   O157      1.98524      .   S
    N156   O158      1.02573      .   S
    Zr39   O158      2.03188      .   S
    N156   O159      1.08467      .   S
    Zr47   O159      2.10470      .   S
    N160   O161      1.05325      .   S
    Zr41   O161      2.04327      .   S
    N160   O162      1.05675      .   S
    Zr4    O162      2.08299      .   S
    N160   O163      1.07965      .   S
    Zr2    O163      2.10236  1_655   S
    N164   O165      1.04257      .   S
    Zr7    O165      2.01923      .   S
    N164   O166      1.01533      .   S
    Zr47   O166      2.01261      .   S
    N164   O167      1.05101      .   S
    Zr11   O167      2.03520      .   S
    N168   O169      1.02322      .   S
    Zr23   O169      1.98311  1_655   S
    N168   O170      1.05689      .   S
    Zr29   O170      2.07228      .   S
    N168   O171      1.07936      .   S
    Zr17   O171      2.10682      .   S
    N172   O173      1.05422      .   S
    Zr36   O173      2.04893      .   S
    N172   O174      1.05216      .   S
    Zr5    O174      2.07002      .   S
    N172   O175      1.07417      .   S
    Zr9    O175      2.09782      .   S
    N176   O177      1.05362      .   S
    Zr46   O177      2.04406      .   S
    N176   O178      1.05820      .   S
    Zr14   O178      2.08864      .   S
    N176   O179      1.07932      .   S
    Zr10   O179      2.10165      .   S
    N180   O181      1.05362      .   S
    Zr47   O181      2.04406      .   S
    N180   O182      1.05820      .   S
    Zr15   O182      2.08863      .   S
    N180   O183      1.07932      .   S
    Zr11   O183      2.10165      .   S
    N184   O185      1.02304      .   S
    Zr4    O185      1.98440  1_455   S
    N184   O186      1.05681      .   S
    Zr14   O186      2.07222      .   S
    N184   O187      1.07933      .   S
    Zr2    O187      2.10692      .   S
    N188   O189      1.07935      .   S
    Zr9    O189      2.10677      .   S
    N188   O190      1.05482      .   S
    Zr5    O190      2.06744      .   S
    N188   O191      1.02325      .   S
    Zr13   O191      1.98334      .   S
    N192   O193      1.05933      .   S
    Zr35   O193      2.06066      .   S
    N192   O194      1.04787      .   S
    Zr7    O194      2.04146      .   S
    N192   O195      1.06194      .   S
    Zr1    O195      2.07096      .   S
    N196   O197      1.02569      .   S
    Zr37   O197      2.03184      .   S
    N196   O198      1.02606      .   S
    Zr8    O198      1.98517      .   S
    N196   O199      1.08468      .   S
    Zr44   O199      2.10463      .   S
    N200   O201      1.05863      .   S
    Zr38   O201      2.06236  1_565   S
    N200   O202      1.06231      .   S
    Zr26   O202      2.07165      .   S
    N200   O203      1.04842      .   S
    Zr30   O203      2.04482      .   S
    N204   O205      1.05329      .   S
    Zr40   O205      2.04328  1_545   S
    N204   O206      1.05676      .   S
    Zr5    O206      2.08301      .   S
    N204   O207      1.07965      .   S
    Zr3    O207      2.10236  1_655   S
    N208   O209      1.05337      .   S
    Zr41   O209      2.04350  1_454   S
    N208   O210      1.05801      .   S
    Zr23   O210      2.08818      .   S
    N208   O211      1.07964      .   S
    Zr17   O211      2.10231  1_455   S
    N212   O213      1.02326      .   S
    Zr29   O213      1.98332      .   S
    N212   O214      1.07924      .   S
    Zr25   O214      2.10667      .   S
    N212   O215      1.05670      .   S
    Zr21   O215      2.07185      .   S
    N216   O217      1.05396      .   S
    Zr33   O217      2.04816  1_554   S
    N216   O218      1.07434      .   S
    Zr17   O218      2.09825      .   S
    N216   O219      1.05001      .   S
    Zr29   O219      2.06424      .   S
    N220   O221      1.05396      .   S
    Zr34   O221      2.04816  1_554   S
    N220   O222      1.07434      .   S
    Zr18   O222      2.09824      .   S
    N220   O223      1.05000      .   S
    Zr30   O223      2.06423      .   S
    N224   O225      1.05359      .   S
    Zr45   O225      2.04397      .   S
    N224   O226      1.05819      .   S
    Zr29   O226      2.08864      .   S
    N224   O227      1.07932      .   S
    Zr25   O227      2.10165      .   S
    N228   O229      1.05364      .   S
    Zr35   O229      2.04794      .   S
    N228   O230      1.07398      .   S
    Zr1    O230      2.09882      .   S
    N228   O231      1.04951      .   S
    Zr13   O231      2.06562      .   S
    N232   O233      1.05045      .   S
    Zr23   O233      2.06523      .   S
    N232   O234      1.07421      .   S
    Zr27   O234      2.09784      .   S
    N232   O235      1.05426      .   S
    Zr39   O235      2.04894      .   S
    N236   O237      1.01574      .   S
    Zr43   O237      2.01367  1_554   S
    N236   O238      1.05078      .   S
    Zr19   O238      2.03468      .   S
    N236   O239      1.04118      .   S
    Zr31   O239      2.01453      .   S
    N240   O241      1.05359      .   S
    Zr46   O241      2.04396      .   S
    N240   O242      1.05819      .   S
    Zr30   O242      2.08863      .   S
    N240   O243      1.07932      .   S
    Zr26   O243      2.10165      .   S
    N244   O245      1.01532      .   S
    Zr44   O245      2.01258      .   S
    N244   O246      1.05101      .   S
    Zr24   O246      2.03520      .   S
    N244   O247      1.04094      .   S
    Zr20   O247      2.01399      .   S
    N248   O249      1.06210  1_655   S
    Zr17   O249      2.07115      .   S
    N248   O250      1.04854      .   S
    Zr23   O250      2.04510      .   S
    N248   O251      1.05873      .   S
    Zr33   O251      2.06316  1_454   S
    N252   O253      1.06229      .   S
    Zr8    O253      2.07164      .   S
    N252   O254      1.04835      .   S
    Zr12   O254      2.04475      .   S
    N252   O255      1.05863      .   S
    Zr37   O255      2.06259      .   S
    N256   O257      1.02614      .   S
    Zr25   O257      1.98526      .   S
    N256   O258      1.02574      .   S
    Zr37   O258      2.03188      .   S
    N256   O259      1.08468      .   S
    Zr45   O259      2.10471      .   S
    N260   O261      1.04118      .   S
    Zr30   O261      2.01454      .   S
    N260   O262      1.05078      .   S
    Zr18   O262      2.03469      .   S
    N260   O263      1.01574      .   S
    Zr42   O263      2.01365  1_554   S
    N264   O265      1.07967      .   S
    Zr0    O265      2.10244      .   S
    N264   O266      1.05675      .   S
    Zr6    O266      2.08299      .   S
    N264   O267      1.05324      .   S
    Zr43   O267      2.04324      .   S
    N268   O269      1.02326      .   S
    Zr30   O269      1.98332      .   S
    N268   O270      1.07924      .   S
    Zr26   O270      2.10666      .   S
    N268   O271      1.05669      .   S
    Zr22   O271      2.07185      .   S
    N272   O273      1.02325      .   S
    Zr20   O273      1.98321      .   S
    N272   O274      1.05689      .   S
    Zr30   O274      2.07228      .   S
    N272   O275      1.07936      .   S
    Zr18   O275      2.10682      .   S
    N276   O277      1.07417      .   S
    Zr11   O277      2.09781      .   S
    N276   O278      1.05216      .   S
    Zr7    O278      2.07002      .   S
    N276   O279      1.05422      .   S
    Zr38   O279      2.04893      .   S
    N280   O281      1.04787      .   S
    Zr6    O281      2.04146      .   S
    N280   O282      1.06193      .   S
    Zr0    O282      2.07095      .   S
    N280   O283      1.05933      .   S
    Zr34   O283      2.06066      .   S
    N284   O285      1.02325      .   S
    Zr15   O285      1.98334      .   S
    N284   O286      1.07935      .   S
    Zr11   O286      2.10677      .   S
    N284   O287      1.05482      .   S
    Zr7    O287      2.06744      .   S
    N288   O289      1.05359      .   S
    Zr44   O289      2.04396      .   S
    N288   O290      1.05819      .   S
    Zr28   O290      2.08863      .   S
    N288   O291      1.07932      .   S
    Zr24   O291      2.10165      .   S
    N292   O293      1.05863      .   S
    Zr39   O293      2.06258      .   S
    N292   O294      1.04835      .   S
    Zr14   O294      2.04475      .   S
    N292   O295      1.06229      .   S
    Zr10   O295      2.07164      .   S
    N296   O297      1.06231      .   S
    Zr24   O297      2.07165      .   S
    N296   O298      1.04842      .   S
    Zr28   O298      2.04482      .   S
    N296   O299      1.05863      .   S
    Zr36   O299      2.06236  1_565   S
    N300   O301      1.05339      .   S
    Zr43   O301      2.04359  1_554   S
    N300   O302      1.05801      .   S
    Zr21   O302      2.08818      .   S
    N300   O303      1.07967      .   S
    Zr19   O303      2.10239      .   S
    N304   O305      1.05396      .   S
    Zr35   O305      2.04816  1_554   S
    N304   O306      1.07434      .   S
    Zr19   O306      2.09824      .   S
    N304   O307      1.05001      .   S
    Zr31   O307      2.06424      .   S
    N308   O309      1.05364      .   S
    Zr34   O309      2.04794      .   S
    N308   O310      1.07398      .   S
    Zr0    O310      2.09880      .   S
    N308   O311      1.04951      .   S
    Zr12   O311      2.06562      .   S
    N312   O313      1.04951      .   S
    Zr15   O313      2.06562      .   S
    N312   O314      1.07398      .   S
    Zr3    O314      2.09881      .   S
    N312   O315      1.05361      .   S
    Zr33   O315      2.04784  1_455   S
    N316   O317      1.02304      .   S
    Zr5    O317      1.98440  1_455   S
    N316   O318      1.05680      .   S
    Zr15   O318      2.07221      .   S
    N316   O319      1.07933      .   S
    Zr3    O319      2.10692      .   S
    N320   O321      1.02614  1_554   S
    Zr16   O321      1.98523  1_455   S
    N320   O322      1.02575      .   S
    Zr32   O322      2.03204  1_455   S
    N320   O323      1.08450      .   S
    Zr40   O323      2.10429  1_455   S
    N324   O325      1.05863      .   S
    Zr39   O325      2.06236      .   S
    N324   O326      1.06228      .   S
    Zr27   O326      2.07162      .   S
    N324   O327      1.04837      .   S
    Zr31   O327      2.04476      .   S
    N328   O329      1.05689      .   S
    Zr31   O329      2.07228      .   S
    N328   O330      1.07936      .   S
    Zr19   O330      2.10682      .   S
    N328   O331      1.02325      .   S
    Zr21   O331      1.98321      .   S
    N332   O333      1.06211      .   S
    Zr18   O333      2.07118      .   S
    N332   O334      1.04854      .   S
    Zr20   O334      2.04509      .   S
    N332   O335      1.05874      .   S
    Zr34   O335      2.06316  1_554   S
    N336   O337      1.04118      .   S
    Zr28   O337      2.01453      .   S
    N336   O338      1.05078      .   S
    Zr16   O338      2.03469      .   S
    N336   O339      1.01574      .   S
    Zr40   O339      2.01367  1_554   S
    N340   O341      1.02574      .   S
    Zr36   O341      2.03188  1_565   S
    N340   O342      1.02614      .   S
    Zr24   O342      1.98526      .   S
    N340   O343      1.08467      .   S
    Zr44   O343      2.10470      .   S
    N344   O345      1.05341      .   S
    Zr42   O345      2.04355  1_554   S
    N344   O346      1.05802      .   S
    Zr20   O346      2.08820      .   S
    N344   O347      1.07967      .   S
    Zr18   O347      2.10238      .   S
    N348   O349      1.04118      .   S
    Zr29   O349      2.01453      .   S
    N348   O350      1.05078      .   S
    Zr17   O350      2.03468      .   S
    N348   O351      1.01576      .   S
    Zr41   O351      2.01372  1_554   S
    N352   O353      1.08460      .   S
    Zr42   O353      2.10464  1_544   S
    N352   O354      1.02583      .   S
    Zr35   O354      2.03204  1_554   S
    N352   O355      1.02622  1_556   S
    Zr1    O355      1.98523      .   S
    N356   O357      1.01572      .   S
    Zr43   O357      2.01357      .   S
    N356   O358      1.05075      .   S
    Zr0    O358      2.03458      .   S
    N356   O359      1.04118      .   S
    Zr12   O359      2.01449      .   S
    N360   O361      1.04094      .   S
    Zr21   O361      2.01400      .   S
    N360   O362      1.01532      .   S
    Zr45   O362      2.01257      .   S
    N360   O363      1.05101      .   S
    Zr25   O363      2.03520      .   S
    N364   O365      1.05045      .   S
    Zr20   O365      2.06523      .   S
    N364   O366      1.07421      .   S
    Zr24   O366      2.09784      .   S
    N364   O367      1.05426      .   S
    Zr36   O367      2.04894  1_565   S
    N368   O369      1.05044      .   S
    Zr21   O369      2.06523      .   S
    N368   O370      1.07421      .   S
    Zr25   O370      2.09784      .   S
    N368   O371      1.05426      .   S
    Zr37   O371      2.04896      .   S
    N372   O373      1.02615      .   S
    Zr26   O373      1.98526      .   S
    N372   O374      1.02574      .   S
    Zr38   O374      2.03188  1_565   S
    N372   O375      1.08467      .   S
    Zr46   O375      2.10470      .   S
    N376   O377      1.04840      .   S
    Zr13   O377      2.04480      .   S
    N376   O378      1.06232      .   S
    Zr9    O378      2.07166      .   S
    N376   O379      1.05864      .   S
    Zr36   O379      2.06259      .   S
    N380   O381      1.05424      .   S
    Zr37   O381      2.04902      .   S
    N380   O382      1.05215      .   S
    Zr4    O382      2.07001      .   S
    N380   O383      1.07416      .   S
    Zr8    O383      2.09780      .   S
    N384   O385      1.05426      .   S
    Zr38   O385      2.04894  1_565   S
    N384   O386      1.05044      .   S
    Zr22   O386      2.06523      .   S
    N384   O387      1.07421      .   S
    Zr26   O387      2.09783      .   S
    N388   O389      1.02613  1_554   S
    Zr17   O389      1.98523  1_455   S
    N388   O390      1.02575      .   S
    Zr33   O390      2.03204  1_455   S
    N388   O391      1.08450      .   S
    Zr41   O391      2.10428  1_455   S
    N392   O393      1.07932      .   S
    Zr8    O393      2.10166      .   S
    N392   O394      1.05819      .   S
    Zr12   O394      2.08864      .   S
    N392   O395      1.05362      .   S
    Zr44   O395      2.04406      .   S
    N396   O397      1.04841      .   S
    Zr15   O397      2.04480      .   S
    N396   O398      1.06232      .   S
    Zr11   O398      2.07166      .   S
    N396   O399      1.05864      .   S
    Zr38   O399      2.06259      .   S
    N400   O401      1.08455      .   S
    Zr41   O401      2.10450  1_554   S
    N400   O402      1.02583      .   S
    Zr32   O402      2.03206  1_554   S
    N400   O403      1.02619  1_556   S
    Zr2    O403      1.98517  1_655   S
    N404   O405      1.01532      .   S
    Zr46   O405      2.01257      .   S
    N404   O406      1.05101      .   S
    Zr26   O406      2.03519      .   S
    N404   O407      1.04094      .   S
    Zr22   O407      2.01399      .   S
    N408   O409      1.06192  1_455   S
    Zr2    O409      2.07091      .   S
    N408   O410      1.04787      .   S
    Zr4    O410      2.04146      .   S
    N408   O411      1.05933      .   S
    Zr32   O411      2.06066      .   S
    N412   O413      1.08451      .   S
    Zr43   O413      2.10435      .   S
    N412   O414      1.02576      .   S
    Zr35   O414      2.03207      .   S
    N412   O415      1.02616  1_554   S
    Zr19   O415      1.98529      .   S
    N416   O417      1.06211  1_655   S
    Zr16   O417      2.07115      .   S
    N416   O418      1.04854      .   S
    Zr22   O418      2.04509      .   S
    N416   O419      1.05873      .   S
    Zr32   O419      2.06316  1_454   S
    N420   O421      1.04094      .   S
    Zr23   O421      2.01400      .   S
    N420   O422      1.01532      .   S
    Zr47   O422      2.01258      .   S
    N420   O423      1.05101      .   S
    Zr27   O423      2.03520      .   S
    N424   O425      1.06193  1_455   S
    Zr3    O425      2.07093      .   S
    N424   O426      1.04787      .   S
    Zr5    O426      2.04146      .   S
    N424   O427      1.05932      .   S
    Zr33   O427      2.06066      .   S
    N428   O429      1.07933      .   S
    Zr0    O429      2.10692      .   S
    N428   O430      1.05680      .   S
    Zr12   O430      2.07221      .   S
    N428   O431      1.02308      .   S
    Zr6    O431      1.98450      .   S
