# CIF file generated by openbabel 2.4.90, see http://openbabel.sf.net
data_I
_chemical_name_common ''
_cell_length_a 20.196
_cell_length_b 23.101
_cell_length_c 14.88
_cell_angle_alpha 91.161
_cell_angle_beta 90
_cell_angle_gamma 89.958
_space_group_name_H-M_alt 'P 1'
_space_group_name_Hall 'P 1'
loop_
    _symmetry_equiv_pos_as_xyz
    x,y,z
loop_
    _atom_site_label
    _atom_site_type_symbol
    _atom_site_fract_x
    _atom_site_fract_y
    _atom_site_fract_z
    _atom_site_occupancy
    N0      N    0.68194   0.72519   0.68031   1.000
    N1      N    0.36384   0.96447   0.05776   1.000
    N2      N    0.86384   0.46489   0.05776   1.000
    N3      N    0.85882   0.28880   0.05204   1.000
    N4      N    0.56806   0.97516   0.18026   1.000
    N5      N    0.55047   0.37113   0.96679   1.000
    N6      N    0.23850   0.51048   0.70760   1.000
    N7      N    0.41962   0.91262   0.32753   1.000
    N8      N    0.83035   0.66257   0.82753   1.000
    N9      N    0.33034   0.16258   0.82753   1.000
    N10     N    0.30051   0.87880   0.53311   1.000
    N11     N    0.80051   0.37881   0.53310   1.000
    N12     N    0.80051   0.87880   0.53311   1.000
    N13     N    0.86384   0.96447   0.05776   1.000
    N14     N    0.16967   0.33742   0.17242   1.000
    N15     N    0.14119   0.21119   0.94783   1.000
    N16     N    0.44954   0.12886   0.03317   1.000
    N17     N    0.48842   0.73948   0.79235   1.000
    N18     N    0.05047   0.87113   0.96678   1.000
    N19     N    0.31808   0.77480   0.31967   1.000
    N20     N    0.08039   0.08737   0.67243   1.000
    N21     N    0.66967   0.33742   0.17242   1.000
    N22     N    0.60879   0.46134   0.44767   1.000
    N23     N    0.93196   0.02483   0.81970   1.000
    N24     N    0.11387   0.78521   0.44233   1.000
    N25     N    0.61387   0.28521   0.44233   1.000
    N26     N    0.11386   0.28521   0.44233   1.000
    N27     N    0.69951   0.62118   0.46685   1.000
    N28     N    0.06806   0.47517   0.18026   1.000
    N29     N    0.61387   0.78521   0.44233   1.000
    N30     N    0.08039   0.58737   0.67243   1.000
    N31     N    0.10879   0.96134   0.44767   1.000
    N32     N    0.81808   0.27480   0.31966   1.000
    N33     N    0.81808   0.77480   0.31966   1.000
    N34     N    0.91962   0.41262   0.32753   1.000
    N35     N    0.16967   0.83741   0.17242   1.000
    N36     N    0.51160   0.76050   0.20753   1.000
    N37     N    0.30050   0.37881   0.53311   1.000
    N38     N    0.73850   0.01048   0.70760   1.000
    N39     N    0.06806   0.97516   0.18026   1.000
    N40     N    0.93196   0.52482   0.81970   1.000
    N41     N    0.33035   0.66257   0.82753   1.000
    N42     N    0.14120   0.71119   0.94783   1.000
    N43     N    0.64120   0.21119   0.94783   1.000
    N44     N    0.18194   0.72519   0.68031   1.000
    N45     N    0.35882   0.78880   0.05204   1.000
    N46     N    0.89123   0.53864   0.55229   1.000
    N47     N    0.63618   0.53510   0.94222   1.000
    N48     N    0.68194   0.22519   0.68031   1.000
    N49     N    0.38615   0.21478   0.55764   1.000
    N50     N    0.98843   0.73948   0.79235   1.000
    N51     N    0.26152   0.48951   0.29237   1.000
    N52     N    0.19951   0.62118   0.46685   1.000
    N53     N    0.63618   0.03510   0.94221   1.000
    N54     N    0.56806   0.47517   0.18026   1.000
    N55     N    0.83035   0.16258   0.82753   1.000
    N56     N    0.58039   0.08737   0.67243   1.000
    N57     N    0.60880   0.96134   0.44767   1.000
    N58     N    0.51159   0.26051   0.20753   1.000
    N59     N    0.66967   0.83741   0.17242   1.000
    N60     N    0.18194   0.22519   0.68031   1.000
    N61     N    0.76152   0.48951   0.29237   1.000
    N62     N    0.23850   0.01048   0.70760   1.000
    N63     N    0.43195   0.52482   0.81970   1.000
    N64     N    0.64120   0.71119   0.94783   1.000
    N65     N    0.35882   0.28880   0.05204   1.000
    N66     N    0.85882   0.78880   0.05204   1.000
    N67     N    0.91963   0.91262   0.32753   1.000
    N68     N    0.94954   0.12886   0.03317   1.000
    N69     N    0.73850   0.51048   0.70760   1.000
    N70     N    0.58040   0.58737   0.67243   1.000
    N71     N    0.48842   0.23949   0.79235   1.000
    N72     N    0.13617   0.03510   0.94221   1.000
    N73     N    0.19951   0.12119   0.46685   1.000
    N74     N    0.43195   0.02483   0.81970   1.000
    N75     N    0.13618   0.53510   0.94222   1.000
    N76     N    0.55048   0.87113   0.96679   1.000
    N77     N    0.36383   0.46489   0.05776   1.000
    N78     N    0.38615   0.71477   0.55764   1.000
    N79     N    0.39122   0.03865   0.55229   1.000
    N80     N    0.39122   0.53864   0.55229   1.000
    N81     N    0.69951   0.12119   0.46685   1.000
    N82     N    0.26152   0.98951   0.29237   1.000
    N83     N    0.10879   0.46134   0.44766   1.000
    N84     N    0.89122   0.03865   0.55229   1.000
    N85     N    0.94955   0.62885   0.03317   1.000
    N86     N    0.31807   0.27480   0.31966   1.000
    N87     N    0.76152   0.98951   0.29237   1.000
    N88     N    0.05047   0.37113   0.96679   1.000
    N89     N    0.88615   0.21478   0.55764   1.000
    N90     N    0.01159   0.26051   0.20753   1.000
    N91     N    0.44954   0.62885   0.03316   1.000
    N92     N    0.98842   0.23949   0.79235   1.000
    N93     N    0.88615   0.71477   0.55764   1.000
    N94     N    0.01159   0.76050   0.20753   1.000
    N95     N    0.41962   0.41262   0.32753   1.000
    Zr96    Zr   0.28603   0.62744   0.62962   1.000
    O97     O    0.30448   0.63920   0.69363   1.000
    O98     O    0.24999   0.65781   0.64999   1.000
    O99     O    0.26850   0.59043   0.65972   1.000
    O100    O    0.31607   0.65811   0.60329   1.000
    O101    O    0.25814   0.62157   0.57526   1.000
    O102    O    0.32337   0.59878   0.60814   1.000
    Zr103   Zr   0.19140   0.62020   0.80871   1.000
    O104    O    0.17047   0.64969   0.85335   1.000
    O105    O    0.19085   0.65328   0.76192   1.000
    O106    O    0.20936   0.58590   0.77165   1.000
    O107    O    0.15161   0.60930   0.76782   1.000
    O108    O    0.23653   0.63547   0.82037   1.000
    O109    O    0.17690   0.59082   0.85377   1.000
    Zr110   Zr   0.21399   0.37255   0.37035   1.000
    O111    O    0.18394   0.34188   0.39669   1.000
    O112    O    0.24187   0.37842   0.42470   1.000
    O113    O    0.23151   0.40956   0.34025   1.000
    O114    O    0.19553   0.36079   0.30634   1.000
    O115    O    0.25002   0.34218   0.34998   1.000
    O116    O    0.17664   0.40121   0.39182   1.000
    Zr117   Zr   0.19139   0.12020   0.80871   1.000
    O118    O    0.23653   0.13547   0.82037   1.000
    O119    O    0.19084   0.15329   0.76192   1.000
    O120    O    0.17047   0.14970   0.85335   1.000
    O121    O    0.17690   0.09082   0.85377   1.000
    O122    O    0.15160   0.10930   0.76782   1.000
    O123    O    0.20935   0.08590   0.77165   1.000
    Zr124   Zr   0.03602   0.62252   0.87035   1.000
    O125    O    0.05450   0.61075   0.80634   1.000
    O126    O    0.06608   0.59183   0.89665   1.000
    O127    O    1.00000   0.59216   0.84999   1.000
    O128    O    0.00815   0.62842   0.92472   1.000
    O129    O    0.01847   0.65953   0.84025   1.000
    O130    O    0.07336   0.65114   0.89187   1.000
    Zr131   Zr   0.00000   0.25000   0.00000   1.000
    O132    O    0.98564   0.20809   0.00575   1.000
    O133    O    0.00293   0.25011   0.06913   1.000
    O134    O    0.95176   0.26094   0.01307   1.000
    O135    O    0.01437   0.29190   0.99423   1.000
    O136    O    0.04824   0.23905   0.98690   1.000
    O137    O    0.99708   0.24988   0.93078   1.000
    Zr138   Zr   0.00001   0.74999   0.00000   1.000
    O139    O    0.04825   0.73905   0.98690   1.000
    O140    O    0.01437   0.79190   0.99423   1.000
    O141    O    0.95177   0.76094   0.01307   1.000
    O142    O    0.99708   0.74988   0.93078   1.000
    O143    O    0.00293   0.75011   0.06913   1.000
    O144    O    0.98565   0.70809   0.00575   1.000
    Zr145   Zr   0.94139   0.12976   0.69128   1.000
    O146    O    0.92689   0.15912   0.64619   1.000
    O147    O    0.92048   0.10023   0.64668   1.000
    O148    O    0.95932   0.16406   0.72833   1.000
    O149    O    0.98654   0.11449   0.67961   1.000
    O150    O    0.90159   0.14065   0.73217   1.000
    O151    O    0.94085   0.09669   0.73808   1.000
    Zr152   Zr   0.21399   0.87254   0.37035   1.000
    O153    O    0.18395   0.84188   0.39669   1.000
    O154    O    0.19553   0.86079   0.30634   1.000
    O155    O    0.17664   0.90120   0.39182   1.000
    O156    O    0.25003   0.84217   0.34998   1.000
    O157    O    0.24187   0.87842   0.42470   1.000
    O158    O    0.23152   0.90956   0.34025   1.000
    Zr159   Zr   0.44139   0.12976   0.69128   1.000
    O160    O    0.40158   0.14065   0.73217   1.000
    O161    O    0.42047   0.10023   0.64668   1.000
    O162    O    0.48654   0.11449   0.67961   1.000
    O163    O    0.44085   0.09669   0.73808   1.000
    O164    O    0.45932   0.16406   0.72833   1.000
    O165    O    0.42688   0.15912   0.64619   1.000
    Zr166   Zr   0.69140   0.12020   0.80871   1.000
    O167    O    0.70936   0.08590   0.77165   1.000
    O168    O    0.73653   0.13547   0.82037   1.000
    O169    O    0.69085   0.15329   0.76192   1.000
    O170    O    0.67047   0.14970   0.85335   1.000
    O171    O    0.67690   0.09082   0.85377   1.000
    O172    O    0.65161   0.10930   0.76782   1.000
    Zr173   Zr   0.46400   0.87747   0.12960   1.000
    O174    O    0.50002   0.90782   0.14996   1.000
    O175    O    0.44552   0.88924   0.19361   1.000
    O176    O    0.49187   0.87157   0.07523   1.000
    O177    O    0.42666   0.84884   0.10801   1.000
    O178    O    0.43394   0.90806   0.10331   1.000
    O179    O    0.48155   0.84045   0.15968   1.000
    Zr180   Zr   0.53602   0.12252   0.87035   1.000
    O181    O    0.50815   0.12842   0.92472   1.000
    O182    O    0.57336   0.15115   0.89187   1.000
    O183    O    0.55449   0.11075   0.80634   1.000
    O184    O    0.51847   0.15953   0.84025   1.000
    O185    O    0.49999   0.09217   0.84999   1.000
    O186    O    0.56608   0.09183   0.89665   1.000
    Zr187   Zr   0.44139   0.62976   0.69128   1.000
    O188    O    0.45932   0.66406   0.72833   1.000
    O189    O    0.44085   0.59669   0.73808   1.000
    O190    O    0.48654   0.61448   0.67961   1.000
    O191    O    0.42689   0.65911   0.64619   1.000
    O192    O    0.40159   0.64064   0.73217   1.000
    O193    O    0.42048   0.60023   0.64668   1.000
    Zr194   Zr   0.50001   0.25000   0.00000   1.000
    O195    O    0.50293   0.25011   0.06913   1.000
    O196    O    0.51437   0.29190   0.99423   1.000
    O197    O    0.49708   0.24988   0.93078   1.000
    O198    O    0.45177   0.26094   0.01307   1.000
    O199    O    0.48564   0.20809   0.00575   1.000
    O200    O    0.54825   0.23905   0.98690   1.000
    Zr201   Zr   0.50001   0.74999   0.00000   1.000
    O202    O    0.49708   0.74988   0.93078   1.000
    O203    O    0.45177   0.76094   0.01307   1.000
    O204    O    0.50294   0.75011   0.06913   1.000
    O205    O    0.54825   0.73905   0.98690   1.000
    O206    O    0.51437   0.79190   0.99423   1.000
    O207    O    0.48565   0.70809   0.00575   1.000
    Zr208   Zr   0.25000   1.00000   0.49999   1.000
    O209    O    0.26438   0.95808   0.50573   1.000
    O210    O    0.29825   0.01090   0.51313   1.000
    O211    O    0.20176   0.98910   0.48684   1.000
    O212    O    0.24710   0.00010   0.56918   1.000
    O213    O    0.25291   0.99989   0.43079   1.000
    O214    O    0.23563   0.04191   0.49425   1.000
    Zr215   Zr   0.25001   0.49999   0.49999   1.000
    O216    O    0.26438   0.45808   0.50573   1.000
    O217    O    0.29826   0.51089   0.51313   1.000
    O218    O    0.20176   0.48910   0.48684   1.000
    O219    O    0.23563   0.54191   0.49425   1.000
    O220    O    0.25291   0.49989   0.43079   1.000
    O221    O    0.24710   0.50010   0.56918   1.000
    Zr222   Zr   0.05862   0.87023   0.30800   1.000
    O223    O    0.07313   0.84087   0.35335   1.000
    O224    O    0.01348   0.88550   0.31993   1.000
    O225    O    0.04069   0.83593   0.27118   1.000
    O226    O    0.05916   0.90330   0.26146   1.000
    O227    O    0.09843   0.85934   0.26737   1.000
    O228    O    0.07954   0.89976   0.35286   1.000
    Zr229   Zr   0.53603   0.62252   0.87035   1.000
    O230    O    0.51847   0.65953   0.84025   1.000
    O231    O    0.57337   0.65114   0.89187   1.000
    O232    O    0.50816   0.62842   0.92472   1.000
    O233    O    0.55450   0.61075   0.80634   1.000
    O234    O    0.56608   0.59183   0.89665   1.000
    O235    O    0.50000   0.59216   0.84999   1.000
    Zr236   Zr   0.46399   0.37747   0.12960   1.000
    O237    O    0.50002   0.40782   0.14996   1.000
    O238    O    0.48155   0.34046   0.15968   1.000
    O239    O    0.43393   0.40816   0.10331   1.000
    O240    O    0.49186   0.37157   0.07523   1.000
    O241    O    0.44552   0.38924   0.19361   1.000
    O242    O    0.42665   0.34885   0.10801   1.000
    Zr243   Zr   0.30861   0.37979   0.19126   1.000
    O244    O    0.29066   0.41409   0.22832   1.000
    O245    O    0.26348   0.36452   0.17959   1.000
    O246    O    0.32954   0.35030   0.14655   1.000
    O247    O    0.32311   0.40917   0.14620   1.000
    O248    O    0.30917   0.34671   0.23805   1.000
    O249    O    0.34841   0.39069   0.23215   1.000
    Zr250   Zr   0.05862   0.37023   0.30800   1.000
    O251    O    0.04069   0.33593   0.27118   1.000
    O252    O    0.07312   0.34088   0.35335   1.000
    O253    O    0.05916   0.40330   0.26146   1.000
    O254    O    0.09843   0.35935   0.26737   1.000
    O255    O    0.07953   0.39976   0.35286   1.000
    O256    O    0.01347   0.38551   0.31993   1.000
    Zr257   Zr   0.75001   1.00000   0.49999   1.000
    O258    O    0.76438   0.95808   0.50573   1.000
    O259    O    0.79826   0.01090   0.51313   1.000
    O260    O    0.70176   0.98910   0.48684   1.000
    O261    O    0.75291   0.99989   0.43079   1.000
    O262    O    0.73563   0.04191   0.49425   1.000
    O263    O    0.74710   0.00010   0.56918   1.000
    Zr264   Zr   0.75001   0.49999   0.49999   1.000
    O265    O    0.74710   0.50010   0.56918   1.000
    O266    O    0.79826   0.51089   0.51313   1.000
    O267    O    0.70176   0.48910   0.48684   1.000
    O268    O    0.73564   0.54191   0.49425   1.000
    O269    O    0.75292   0.49989   0.43079   1.000
    O270    O    0.76438   0.45808   0.50573   1.000
    Zr271   Zr   0.78603   0.12745   0.62962   1.000
    O272    O    0.80448   0.13920   0.69363   1.000
    O273    O    0.75814   0.12157   0.57526   1.000
    O274    O    0.81607   0.15811   0.60329   1.000
    O275    O    0.82337   0.09878   0.60814   1.000
    O276    O    0.74999   0.15781   0.64999   1.000
    O277    O    0.76850   0.09043   0.65972   1.000
    Zr278   Zr   0.55862   0.37023   0.30800   1.000
    O279    O    0.55916   0.40330   0.26146   1.000
    O280    O    0.57954   0.39976   0.35286   1.000
    O281    O    0.51347   0.38551   0.31993   1.000
    O282    O    0.57313   0.34088   0.35335   1.000
    O283    O    0.59843   0.35935   0.26737   1.000
    O284    O    0.54069   0.33593   0.27118   1.000
    Zr285   Zr   0.30862   0.87979   0.19126   1.000
    O286    O    0.26349   0.86452   0.17959   1.000
    O287    O    0.32955   0.85029   0.14655   1.000
    O288    O    0.29066   0.91408   0.22832   1.000
    O289    O    0.32312   0.90906   0.14620   1.000
    O290    O    0.30917   0.84670   0.23805   1.000
    O291    O    0.34841   0.89069   0.23215   1.000
    Zr292   Zr   0.00000   0.00000   0.00000   1.000
    O293    O    0.95644   0.98464   0.02231   1.000
    O294    O    0.02395   0.99502   0.05983   1.000
    O295    O    0.98046   0.04155   0.01315   1.000
    O296    O    0.01954   0.95845   0.98683   1.000
    O297    O    0.04356   0.01525   0.97768   1.000
    O298    O    0.97606   0.00498   0.94016   1.000
    Zr299   Zr   0.00000   0.50000   0.00000   1.000
    O300    O    0.02395   0.49501   0.05983   1.000
    O301    O    0.01954   0.45845   0.98683   1.000
    O302    O    0.98046   0.54154   0.01315   1.000
    O303    O    0.95644   0.48474   0.02231   1.000
    O304    O    0.04357   0.51525   0.97768   1.000
    O305    O    0.97606   0.50498   0.94016   1.000
    Zr306   Zr   0.50000   0.00000   0.00000   1.000
    O307    O    0.52395   0.99502   0.05983   1.000
    O308    O    0.47606   0.00498   0.94016   1.000
    O309    O    0.54357   0.01525   0.97768   1.000
    O310    O    0.45644   0.98464   0.02231   1.000
    O311    O    0.51955   0.95845   0.98683   1.000
    O312    O    0.48046   0.04155   0.01315   1.000
    Zr313   Zr   0.50001   0.50000   0.00000   1.000
    O314    O    0.54357   0.51525   0.97768   1.000
    O315    O    0.48047   0.54154   0.01315   1.000
    O316    O    0.52395   0.49501   0.05983   1.000
    O317    O    0.45644   0.48474   0.02231   1.000
    O318    O    0.47606   0.50498   0.94016   1.000
    O319    O    0.51955   0.45845   0.98683   1.000
    Zr320   Zr   0.03602   0.12252   0.87035   1.000
    O321    O    0.00815   0.12842   0.92472   1.000
    O322    O    0.01847   0.15953   0.84025   1.000
    O323    O    0.07336   0.15115   0.89187   1.000
    O324    O    0.99999   0.09217   0.84999   1.000
    O325    O    0.05449   0.11075   0.80634   1.000
    O326    O    0.06607   0.09183   0.89665   1.000
    Zr327   Zr   0.96400   0.37747   0.12960   1.000
    O328    O    0.94552   0.38924   0.19361   1.000
    O329    O    0.92665   0.34885   0.10801   1.000
    O330    O    0.99186   0.37157   0.07523   1.000
    O331    O    0.98155   0.34046   0.15968   1.000
    O332    O    0.93394   0.40816   0.10331   1.000
    O333    O    0.00002   0.40782   0.14996   1.000
    Zr334   Zr   0.55863   0.87023   0.30800   1.000
    O335    O    0.57954   0.89976   0.35286   1.000
    O336    O    0.51348   0.88550   0.31993   1.000
    O337    O    0.55917   0.90330   0.26146   1.000
    O338    O    0.59843   0.85934   0.26737   1.000
    O339    O    0.57313   0.84087   0.35335   1.000
    O340    O    0.54070   0.83593   0.27118   1.000
    Zr341   Zr   0.94140   0.62976   0.69128   1.000
    O342    O    0.90159   0.64064   0.73217   1.000
    O343    O    0.98655   0.61448   0.67961   1.000
    O344    O    0.92689   0.65911   0.64619   1.000
    O345    O    0.95933   0.66406   0.72833   1.000
    O346    O    0.92048   0.60023   0.64668   1.000
    O347    O    0.94086   0.59669   0.73808   1.000
    Zr348   Zr   0.25000   0.25000   0.49999   1.000
    O349    O    0.26955   0.29152   0.51312   1.000
    O350    O    0.29356   0.23471   0.52227   1.000
    O351    O    0.27395   0.25497   0.44014   1.000
    O352    O    0.23046   0.20847   0.48685   1.000
    O353    O    0.22606   0.24502   0.55984   1.000
    O354    O    0.20645   0.26529   0.47771   1.000
    Zr355   Zr   0.25001   0.74999   0.49999   1.000
    O356    O    0.26956   0.79152   0.51312   1.000
    O357    O    0.22606   0.74502   0.55984   1.000
    O358    O    0.20646   0.76528   0.47771   1.000
    O359    O    0.27396   0.75497   0.44014   1.000
    O360    O    0.29356   0.73470   0.52227   1.000
    O361    O    0.23046   0.70846   0.48685   1.000
    Zr362   Zr   0.80862   0.37979   0.19126   1.000
    O363    O    0.80917   0.34671   0.23805   1.000
    O364    O    0.84841   0.39069   0.23215   1.000
    O365    O    0.76349   0.36452   0.17959   1.000
    O366    O    0.82311   0.40917   0.14620   1.000
    O367    O    0.82954   0.35030   0.14655   1.000
    O368    O    0.79066   0.41409   0.22832   1.000
    Zr369   Zr   0.75001   0.25000   0.49999   1.000
    O370    O    0.76956   0.29152   0.51312   1.000
    O371    O    0.72606   0.24502   0.55984   1.000
    O372    O    0.73046   0.20847   0.48685   1.000
    O373    O    0.79356   0.23471   0.52227   1.000
    O374    O    0.77395   0.25497   0.44014   1.000
    O375    O    0.70645   0.26529   0.47771   1.000
    Zr376   Zr   0.75001   0.74999   0.49999   1.000
    O377    O    0.76956   0.79152   0.51312   1.000
    O378    O    0.70646   0.76528   0.47771   1.000
    O379    O    0.79357   0.73470   0.52227   1.000
    O380    O    0.77396   0.75497   0.44014   1.000
    O381    O    0.73046   0.70846   0.48685   1.000
    O382    O    0.72607   0.74502   0.55984   1.000
    Zr383   Zr   0.71399   0.37255   0.37035   1.000
    O384    O    0.73152   0.40956   0.34025   1.000
    O385    O    0.69553   0.36079   0.30634   1.000
    O386    O    0.74187   0.37842   0.42470   1.000
    O387    O    0.68394   0.34188   0.39669   1.000
    O388    O    0.67664   0.40121   0.39182   1.000
    O389    O    0.75003   0.34218   0.34998   1.000
    Zr390   Zr   0.78603   0.62744   0.62962   1.000
    O391    O    0.80449   0.63920   0.69363   1.000
    O392    O    0.76850   0.59043   0.65972   1.000
    O393    O    0.81608   0.65811   0.60329   1.000
    O394    O    0.74999   0.65781   0.64999   1.000
    O395    O    0.75815   0.62157   0.57527   1.000
    O396    O    0.82338   0.59878   0.60814   1.000
    Zr397   Zr   0.96400   0.87747   0.12960   1.000
    O398    O    0.99187   0.87157   0.07523   1.000
    O399    O    0.92666   0.84884   0.10801   1.000
    O400    O    0.00002   0.90782   0.14996   1.000
    O401    O    0.98155   0.84045   0.15968   1.000
    O402    O    0.94552   0.88924   0.19361   1.000
    O403    O    0.93394   0.90806   0.10331   1.000
    Zr404   Zr   0.28602   0.12745   0.62962   1.000
    O405    O    0.25814   0.12157   0.57526   1.000
    O406    O    0.32337   0.09878   0.60814   1.000
    O407    O    0.24999   0.15781   0.64999   1.000
    O408    O    0.30448   0.13920   0.69363   1.000
    O409    O    0.31607   0.15811   0.60329   1.000
    O410    O    0.26850   0.09043   0.65972   1.000
    Zr411   Zr   0.69140   0.62020   0.80871   1.000
    O412    O    0.67048   0.64969   0.85335   1.000
    O413    O    0.73653   0.63547   0.82037   1.000
    O414    O    0.65161   0.60930   0.76782   1.000
    O415    O    0.69085   0.65328   0.76192   1.000
    O416    O    0.70936   0.58590   0.77165   1.000
    O417    O    0.67691   0.59082   0.85377   1.000
    Zr418   Zr   0.71400   0.87254   0.37035   1.000
    O419    O    0.67665   0.90120   0.39182   1.000
    O420    O    0.73152   0.90956   0.34025   1.000
    O421    O    0.74188   0.87842   0.42470   1.000
    O422    O    0.68395   0.84188   0.39669   1.000
    O423    O    0.75003   0.84217   0.34998   1.000
    O424    O    0.69554   0.86079   0.30634   1.000
    Zr425   Zr   0.80862   0.87979   0.19126   1.000
    O426    O    0.80917   0.84670   0.23805   1.000
    O427    O    0.84841   0.89069   0.23215   1.000
    O428    O    0.76349   0.86452   0.17959   1.000
    O429    O    0.82955   0.85029   0.14655   1.000
    O430    O    0.79066   0.91408   0.22832   1.000
    O431    O    0.82312   0.90906   0.14620   1.000
loop_
    _geom_bond_atom_site_label_1
    _geom_bond_atom_site_label_2
    _geom_bond_distance
    _geom_bond_site_symmetry_2
    _ccdc_geom_bond_type
    Zr96   O97       1.05333      .   S
    N41    O97       2.11921      .   S
    Zr96   O98       1.05083      .   S
    N44    O98       2.11735      .   S
    Zr96   O99       1.03581      .   S
    N6     O99       2.08351      .   S
    Zr96   O100      1.01760      .   S
    N78    O100      2.05345      .   S
    Zr96   O101      0.99263      .   S
    N52    O101      2.00106      .   S
    Zr96   O102      1.04892      .   S
    N80    O102      2.10918      .   S
    Zr103  O104      1.03212      .   S
    N42    O104      2.06443      .   S
    Zr103  O105      1.04432      .   S
    N44    O105      2.08509      .   S
    Zr103  O106      1.02238      .   S
    N6     O106      2.05465      .   S
    Zr103  O107      1.03614      .   S
    N30    O107      2.07646      .   S
    Zr103  O108      0.99166      .   S
    N41    O108      1.99807      .   S
    Zr103  O109      1.00727      .   S
    N75    O109      2.03360      .   S
    Zr110  O111      1.01760      .   S
    N26    O111      2.05345      .   S
    Zr110  O112      0.99258      .   S
    N37    O112      2.00093      .   S
    Zr110  O113      1.03582      .   S
    N51    O113      2.08353      .   S
    Zr110  O114      1.05338      .   S
    N14    O114      2.11937      .   S
    Zr110  O115      1.05083      .   S
    N86    O115      2.11736      .   S
    Zr110  O116      1.04890      .   S
    N83    O116      2.10911      .   S
    Zr117  O118      0.99166      .   S
    N9     O118      1.99808      .   S
    Zr117  O119      1.04431      .   S
    N60    O119      2.08508      .   S
    Zr117  O120      1.03212      .   S
    N15    O120      2.06444      .   S
    Zr117  O121      1.00727      .   S
    N72    O121      2.03360      .   S
    Zr117  O122      1.03614      .   S
    N20    O122      2.07646      .   S
    Zr117  O123      1.02241      .   S
    N62    O123      2.05472      .   S
    Zr124  O125      1.05341      .   S
    N30    O125      2.11940      .   S
    Zr124  O126      1.01734      .   S
    N75    O126      2.05294      .   S
    Zr124  O127      1.05116  1_455   S
    N40    O127      2.11804      .   S
    Zr124  O128      0.99261      .   S
    N85    O128      2.00105  1_654   S
    Zr124  O129      1.03558      .   S
    N50    O129      2.08310  1_655   S
    Zr124  O130      1.04912      .   S
    N42    O130      2.10953      .   S
    Zr131  O132      1.01602  1_455   S
    N68    O132      2.02004      .   S
    Zr131  O133      1.03033      .   S
    N90    O133      2.07584      .   S
    Zr131  O134      1.02392  1_455   S
    N3     O134      2.06334      .   S
    Zr131  O135      1.01603  1_554   S
    N88    O135      2.02014      .   S
    Zr131  O136      1.02408  1_554   S
    N15    O136      2.06382      .   S
    Zr131  O137      1.03158  1_454   S
    N92    O137      2.07647      .   S
    Zr138  O139      1.02408  1_554   S
    N42    O139      2.06383      .   S
    Zr138  O140      1.01602  1_554   S
    N18    O140      2.02013      .   S
    Zr138  O141      1.02392  1_455   S
    N66    O141      2.06335      .   S
    Zr138  O142      1.03158  1_454   S
    N50    O142      2.07647      .   S
    Zr138  O143      1.03033      .   S
    N94    O143      2.07584      .   S
    Zr138  O144      1.01602  1_455   S
    N85    O144      2.02005      .   S
    Zr145  O146      1.00700      .   S
    N89    O146      2.03308      .   S
    Zr145  O147      1.03261      .   S
    N84    O147      2.06539      .   S
    Zr145  O148      1.02255      .   S
    N92    O148      2.05500      .   S
    Zr145  O149      0.99156      .   S
    N20    O149      1.99794  1_455   S
    Zr145  O150      1.03593      .   S
    N55    O150      2.07607      .   S
    Zr145  O151      1.04410      .   S
    N23    O151      2.08469      .   S
    Zr152  O153      1.01760      .   S
    N24    O153      2.05345      .   S
    Zr152  O154      1.05339      .   S
    N35    O154      2.11937      .   S
    Zr152  O155      1.04891      .   S
    N31    O155      2.10913      .   S
    Zr152  O156      1.05082      .   S
    N19    O156      2.11735      .   S
    Zr152  O157      0.99258      .   S
    N10    O157      2.00093      .   S
    Zr152  O158      1.03583      .   S
    N82    O158      2.08357      .   S
    Zr159  O160      1.03593      .   S
    N9     O160      2.07607      .   S
    Zr159  O161      1.03262      .   S
    N79    O161      2.06539      .   S
    Zr159  O162      0.99161      .   S
    N56    O162      1.99803      .   S
    Zr159  O163      1.04410      .   S
    N74    O163      2.08468      .   S
    Zr159  O164      1.02255      .   S
    N71    O164      2.05500      .   S
    Zr159  O165      1.00700      .   S
    N49    O165      2.03308      .   S
    Zr166  O167      1.02241      .   S
    N38    O167      2.05472      .   S
    Zr166  O168      0.99166      .   S
    N55    O168      1.99808      .   S
    Zr166  O169      1.04431      .   S
    N48    O169      2.08508      .   S
    Zr166  O170      1.03212      .   S
    N43    O170      2.06442      .   S
    Zr166  O171      1.00727      .   S
    N53    O171      2.03361      .   S
    Zr166  O172      1.03614      .   S
    N56    O172      2.07646      .   S
    Zr173  O174      1.05121      .   S
    N4     O174      2.11811      .   S
    Zr173  O175      1.05346      .   S
    N7     O175      2.11942      .   S
    Zr173  O176      0.99261      .   S
    N76    O176      2.00113  1_556   S
    Zr173  O177      1.04941      .   S
    N45    O177      2.10960      .   S
    Zr173  O178      1.01562      .   S
    N1     O178      2.04827      .   S
    Zr173  O179      1.03548      .   S
    N36    O179      2.08280      .   S
    Zr180  O181      0.99264      .   S
    N16    O181      2.00110  1_554   S
    Zr180  O182      1.04912      .   S
    N43    O182      2.10952      .   S
    Zr180  O183      1.05341      .   S
    N56    O183      2.11940      .   S
    Zr180  O184      1.03559      .   S
    N71    O184      2.08312      .   S
    Zr180  O185      1.05119      .   S
    N74    O185      2.11810      .   S
    Zr180  O186      1.01734      .   S
    N53    O186      2.05294      .   S
    Zr187  O188      1.02255      .   S
    N17    O188      2.05500      .   S
    Zr187  O189      1.04409      .   S
    N63    O189      2.08466      .   S
    Zr187  O190      0.99161      .   S
    N70    O190      1.99803      .   S
    Zr187  O191      1.00700      .   S
    N78    O191      2.03308      .   S
    Zr187  O192      1.03593      .   S
    N41    O192      2.07607      .   S
    Zr187  O193      1.03261      .   S
    N80    O193      2.06539      .   S
    Zr194  O195      1.03033      .   S
    N58    O195      2.07584      .   S
    Zr194  O196      1.01603  1_554   S
    N5     O196      2.02014      .   S
    Zr194  O197      1.03158  1_554   S
    N71    O197      2.07648      .   S
    Zr194  O198      1.02397      .   S
    N65    O198      2.06343      .   S
    Zr194  O199      1.01603      .   S
    N16    O199      2.02007      .   S
    Zr194  O200      1.02408  1_554   S
    N43    O200      2.06383      .   S
    Zr201  O202      1.03158  1_554   S
    N17    O202      2.07648      .   S
    Zr201  O203      1.02397      .   S
    N45    O203      2.06342      .   S
    Zr201  O204      1.03033      .   S
    N36    O204      2.07584      .   S
    Zr201  O205      1.02408  1_554   S
    N64    O205      2.06383      .   S
    Zr201  O206      1.01602  1_554   S
    N76    O206      2.02013      .   S
    Zr201  O207      1.01603      .   S
    N91    O207      2.02008      .   S
    Zr208  O209      1.01601      .   S
    N10    O209      2.02003      .   S
    Zr208  O210      1.02447  1_565   S
    N79    O210      2.06455      .   S
    Zr208  O211      1.02446      .   S
    N31    O211      2.06452      .   S
    Zr208  O212      1.03118  1_565   S
    N62    O212      2.07598      .   S
    Zr208  O213      1.03129      .   S
    N82    O213      2.07611      .   S
    Zr208  O214      1.01594  1_565   S
    N73    O214      2.01995      .   S
    Zr215  O216      1.01592      .   S
    N37    O216      2.01989      .   S
    Zr215  O217      1.02448      .   S
    N80    O217      2.06456      .   S
    Zr215  O218      1.02451      .   S
    N83    O218      2.06458      .   S
    Zr215  O219      1.01594      .   S
    N52    O219      2.01995      .   S
    Zr215  O220      1.03129      .   S
    N51    O220      2.07610      .   S
    Zr215  O221      1.03118      .   S
    N6     O221      2.07599      .   S
    Zr222  O223      1.00962      .   S
    N24    O223      2.03732      .   S
    Zr222  O224      0.99220      .   S
    N67    O224      1.99824  1_655   S
    Zr222  O225      1.02073      .   S
    N94    O225      2.05263      .   S
    Zr222  O226      1.04150      .   S
    N39    O226      2.08091      .   S
    Zr222  O227      1.03372      .   S
    N35    O227      2.07183      .   S
    Zr222  O228      1.03501      .   S
    N31    O228      2.06958      .   S
    Zr229  O230      1.03560      .   S
    N17    O230      2.08313      .   S
    Zr229  O231      1.04912      .   S
    N64    O231      2.10952      .   S
    Zr229  O232      0.99265      .   S
    N91    O232      2.00111  1_554   S
    Zr229  O233      1.05341      .   S
    N70    O233      2.11940      .   S
    Zr229  O234      1.01734      .   S
    N47    O234      2.05294      .   S
    Zr229  O235      1.05120      .   S
    N63    O235      2.11811      .   S
    Zr236  O237      1.05122      .   S
    N54    O237      2.11813      .   S
    Zr236  O238      1.03548      .   S
    N58    O238      2.08279      .   S
    Zr236  O239      1.01729      .   S
    N77    O239      2.05286      .   S
    Zr236  O240      0.99262      .   S
    N5     O240      2.00114  1_556   S
    Zr236  O241      1.05346      .   S
    N95    O241      2.11942      .   S
    Zr236  O242      1.04940      .   S
    N65    O242      2.10959      .   S
    Zr243  O244      1.02238      .   S
    N51    O244      2.05462      .   S
    Zr243  O245      0.99167      .   S
    N14    O245      1.99809      .   S
    Zr243  O246      1.03281      .   S
    N65    O246      2.06468      .   S
    Zr243  O247      1.00725      .   S
    N77    O247      2.03359      .   S
    Zr243  O248      1.04432      .   S
    N86    O248      2.08509      .   S
    Zr243  O249      1.03611      .   S
    N95    O249      2.07634      .   S
    Zr250  O251      1.02073      .   S
    N90    O251      2.05263      .   S
    Zr250  O252      1.00962      .   S
    N26    O252      2.03733      .   S
    Zr250  O253      1.04149      .   S
    N28    O253      2.08089      .   S
    Zr250  O254      1.03372      .   S
    N14    O254      2.07183      .   S
    Zr250  O255      1.03501      .   S
    N83    O255      2.06957      .   S
    Zr250  O256      0.99220      .   S
    N34    O256      1.99825  1_655   S
    Zr257  O258      1.01600      .   S
    N12    O258      2.02002      .   S
    Zr257  O259      1.02447  1_565   S
    N84    O259      2.06455      .   S
    Zr257  O260      1.02446      .   S
    N57    O260      2.06452      .   S
    Zr257  O261      1.03129      .   S
    N87    O261      2.07611      .   S
    Zr257  O262      1.01594  1_565   S
    N81    O262      2.01995      .   S
    Zr257  O263      1.03118  1_565   S
    N38    O263      2.07598      .   S
    Zr264  O265      1.03118      .   S
    N69    O265      2.07599      .   S
    Zr264  O266      1.02447      .   S
    N46    O266      2.06455      .   S
    Zr264  O267      1.02451      .   S
    N22    O267      2.06459      .   S
    Zr264  O268      1.01594      .   S
    N27    O268      2.01994      .   S
    Zr264  O269      1.03129      .   S
    N61    O269      2.07610      .   S
    Zr264  O270      1.01592      .   S
    N11    O270      2.01989      .   S
    Zr271  O272      1.05333      .   S
    N55    O272      2.11921      .   S
    Zr271  O273      0.99263      .   S
    N81    O273      2.00107      .   S
    Zr271  O274      1.01760      .   S
    N89    O274      2.05344      .   S
    Zr271  O275      1.04892      .   S
    N84    O275      2.10917      .   S
    Zr271  O276      1.05083      .   S
    N48    O276      2.11736      .   S
    Zr271  O277      1.03582      .   S
    N38    O277      2.08356      .   S
    Zr278  O279      1.04149      .   S
    N54    O279      2.08089      .   S
    Zr278  O280      1.03501      .   S
    N22    O280      2.06957      .   S
    Zr278  O281      0.99225      .   S
    N95    O281      1.99833      .   S
    Zr278  O282      1.00962      .   S
    N25    O282      2.03733      .   S
    Zr278  O283      1.03372      .   S
    N21    O283      2.07183      .   S
    Zr278  O284      1.02073      .   S
    N58    O284      2.05263      .   S
    Zr285  O286      0.99167      .   S
    N35    O286      1.99808      .   S
    Zr285  O287      1.03281      .   S
    N45    O287      2.06468      .   S
    Zr285  O288      1.02240      .   S
    N82    O288      2.05470      .   S
    Zr285  O289      1.00561      .   S
    N1     O289      2.02899      .   S
    Zr285  O290      1.04432      .   S
    N19    O290      2.08509      .   S
    Zr285  O291      1.03611      .   S
    N7     O291      2.07635      .   S
    Zr292  O293      1.00756  1_445   S
    N13    O293      2.00098      .   S
    Zr292  O294      1.02164  1_545   S
    N39    O294      2.06110      .   S
    Zr292  O295      1.05215  1_455   S
    N68    O295      2.12616      .   S
    Zr292  O296      1.05232  1_544   S
    N18    O296      2.12643      .   S
    Zr292  O297      1.00683  1_554   S
    N72    O297      1.99952      .   S
    Zr292  O298      1.02175  1_454   S
    N23    O298      2.06131      .   S
    Zr299  O300      1.02163      .   S
    N28    O300      2.06106      .   S
    Zr299  O301      1.05225  1_554   S
    N88    O301      2.12631      .   S
    Zr299  O302      1.05214  1_455   S
    N85    O302      2.12615      .   S
    Zr299  O303      1.00671  1_455   S
    N2     O303      1.99932      .   S
    Zr299  O304      1.00686  1_554   S
    N75    O304      1.99957      .   S
    Zr299  O305      1.02175  1_454   S
    N40    O305      2.06130      .   S
    Zr306  O307      1.02164  1_545   S
    N4     O307      2.06110      .   S
    Zr306  O308      1.02178  1_554   S
    N74    O308      2.06136      .   S
    Zr306  O309      1.00683  1_554   S
    N53    O309      1.99951      .   S
    Zr306  O310      1.00761  1_545   S
    N1     O310      2.00108      .   S
    Zr306  O311      1.05232  1_544   S
    N76    O311      2.12643      .   S
    Zr306  O312      1.05217      .   S
    N16    O312      2.12618      .   S
    Zr313  O314      1.00683  1_554   S
    N47    O314      1.99952      .   S
    Zr313  O315      1.05217      .   S
    N91    O315      2.12619      .   S
    Zr313  O316      1.02162      .   S
    N54    O316      2.06103      .   S
    Zr313  O317      1.00679      .   S
    N77    O317      1.99945      .   S
    Zr313  O318      1.02179  1_554   S
    N63    O318      2.06136      .   S
    Zr313  O319      1.05224  1_554   S
    N5     O319      2.12629      .   S
    Zr320  O321      0.99262      .   S
    N68    O321      2.00106  1_654   S
    Zr320  O322      1.03557      .   S
    N92    O322      2.08310  1_655   S
    Zr320  O323      1.04912      .   S
    N15    O323      2.10953      .   S
    Zr320  O324      1.05116  1_455   S
    N23    O324      2.11805      .   S
    Zr320  O325      1.05341      .   S
    N20    O325      2.11940      .   S
    Zr320  O326      1.01734      .   S
    N72    O326      2.05294      .   S
    Zr327  O328      1.05346      .   S
    N34    O328      2.11942      .   S
    Zr327  O329      1.04941      .   S
    N3     O329      2.10959      .   S
    Zr327  O330      0.99258      .   S
    N88    O330      2.00108  1_456   S
    Zr327  O331      1.03546      .   S
    N90    O331      2.08276  1_455   S
    Zr327  O332      1.01730      .   S
    N2     O332      2.05287      .   S
    Zr327  O333      1.05118  1_655   S
    N28    O333      2.11807      .   S
    Zr334  O335      1.03501      .   S
    N57    O335      2.06958      .   S
    Zr334  O336      0.99225      .   S
    N7     O336      1.99834      .   S
    Zr334  O337      1.04150      .   S
    N4     O337      2.08091      .   S
    Zr334  O338      1.03372      .   S
    N59    O338      2.07183      .   S
    Zr334  O339      1.00962      .   S
    N29    O339      2.03732      .   S
    Zr334  O340      1.02073      .   S
    N36    O340      2.05263      .   S
    Zr341  O342      1.03593      .   S
    N8     O342      2.07607      .   S
    Zr341  O343      0.99155      .   S
    N30    O343      1.99794  1_455   S
    Zr341  O344      1.00700      .   S
    N93    O344      2.03308      .   S
    Zr341  O345      1.02255      .   S
    N50    O345      2.05500      .   S
    Zr341  O346      1.03262      .   S
    N46    O346      2.06539      .   S
    Zr341  O347      1.04409      .   S
    N40    O347      2.08466      .   S
    Zr348  O349      1.05232      .   S
    N37    O349      2.12653      .   S
    Zr348  O350      1.00629      .   S
    N49    O350      1.99853      .   S
    Zr348  O351      1.02203      .   S
    N86    O351      2.06185      .   S
    Zr348  O352      1.05235      .   S
    N73    O352      2.12654      .   S
    Zr348  O353      1.02198      .   S
    N60    O353      2.06177      .   S
    Zr348  O354      1.00631      .   S
    N26    O354      1.99855      .   S
    Zr355  O356      1.05231      .   S
    N10    O356      2.12652      .   S
    Zr355  O357      1.02198      .   S
    N44    O357      2.06177      .   S
    Zr355  O358      1.00631      .   S
    N24    O358      1.99856      .   S
    Zr355  O359      1.02203      .   S
    N19    O359      2.06184      .   S
    Zr355  O360      1.00629      .   S
    N78    O360      1.99853      .   S
    Zr355  O361      1.05235      .   S
    N52    O361      2.12655      .   S
    Zr362  O363      1.04432      .   S
    N32    O363      2.08509      .   S
    Zr362  O364      1.03611      .   S
    N34    O364      2.07635      .   S
    Zr362  O365      0.99167      .   S
    N21    O365      1.99808      .   S
    Zr362  O366      1.00725      .   S
    N2     O366      2.03359      .   S
    Zr362  O367      1.03281      .   S
    N3     O367      2.06469      .   S
    Zr362  O368      1.02237      .   S
    N61    O368      2.05462      .   S
    Zr369  O370      1.05232      .   S
    N11    O370      2.12653      .   S
    Zr369  O371      1.02198      .   S
    N48    O371      2.06177      .   S
    Zr369  O372      1.05235      .   S
    N81    O372      2.12654      .   S
    Zr369  O373      1.00628      .   S
    N89    O373      1.99852      .   S
    Zr369  O374      1.02203      .   S
    N32    O374      2.06184      .   S
    Zr369  O375      1.00631      .   S
    N25    O375      1.99856      .   S
    Zr376  O377      1.05231      .   S
    N12    O377      2.12652      .   S
    Zr376  O378      1.00631      .   S
    N29    O378      1.99855      .   S
    Zr376  O379      1.00629      .   S
    N93    O379      1.99853      .   S
    Zr376  O380      1.02203      .   S
    N33    O380      2.06184      .   S
    Zr376  O381      1.05235      .   S
    N27    O381      2.12655      .   S
    Zr376  O382      1.02198      .   S
    N0     O382      2.06177      .   S
    Zr383  O384      1.03582      .   S
    N61    O384      2.08353      .   S
    Zr383  O385      1.05338      .   S
    N21    O385      2.11937      .   S
    Zr383  O386      0.99258      .   S
    N11    O386      2.00093      .   S
    Zr383  O387      1.01761      .   S
    N25    O387      2.05345      .   S
    Zr383  O388      1.04890      .   S
    N22    O388      2.10911      .   S
    Zr383  O389      1.05083      .   S
    N32    O389      2.11736      .   S
    Zr390  O391      1.05333      .   S
    N8     O391      2.11921      .   S
    Zr390  O392      1.03581      .   S
    N69    O392      2.08351      .   S
    Zr390  O393      1.01760      .   S
    N93    O393      2.05345      .   S
    Zr390  O394      1.05083      .   S
    N0     O394      2.11736      .   S
    Zr390  O395      0.99262      .   S
    N27    O395      2.00104      .   S
    Zr390  O396      1.04892      .   S
    N46    O396      2.10918      .   S
    Zr397  O398      0.99259      .   S
    N18    O398      2.00109  1_456   S
    Zr397  O399      1.04941      .   S
    N66    O399      2.10959      .   S
    Zr397  O400      1.05118  1_655   S
    N39    O400      2.11806      .   S
    Zr397  O401      1.03547      .   S
    N94    O401      2.08278  1_455   S
    Zr397  O402      1.05346      .   S
    N67    O402      2.11942      .   S
    Zr397  O403      1.01561      .   S
    N13    O403      2.04826      .   S
    Zr404  O405      0.99263      .   S
    N73    O405      2.00106      .   S
    Zr404  O406      1.04892      .   S
    N79    O406      2.10918      .   S
    Zr404  O407      1.05083      .   S
    N60    O407      2.11736      .   S
    Zr404  O408      1.05333      .   S
    N9     O408      2.11921      .   S
    Zr404  O409      1.01760      .   S
    N49    O409      2.05345      .   S
    Zr404  O410      1.03582      .   S
    N62    O410      2.08356      .   S
    Zr411  O412      1.03212      .   S
    N64    O412      2.06443      .   S
    Zr411  O413      0.99166      .   S
    N8     O413      1.99807      .   S
    Zr411  O414      1.03614      .   S
    N70    O414      2.07647      .   S
    Zr411  O415      1.04432      .   S
    N0     O415      2.08509      .   S
    Zr411  O416      1.02238      .   S
    N69    O416      2.05464      .   S
    Zr411  O417      1.00727      .   S
    N47    O417      2.03360      .   S
    Zr418  O419      1.04890      .   S
    N57    O419      2.10912      .   S
    Zr418  O420      1.03583      .   S
    N87    O420      2.08358      .   S
    Zr418  O421      0.99258      .   S
    N12    O421      2.00093      .   S
    Zr418  O422      1.01760      .   S
    N29    O422      2.05344      .   S
    Zr418  O423      1.05083      .   S
    N33    O423      2.11736      .   S
    Zr418  O424      1.05338      .   S
    N59    O424      2.11937      .   S
    Zr425  O426      1.04432      .   S
    N33    O426      2.08509      .   S
    Zr425  O427      1.03611      .   S
    N67    O427      2.07634      .   S
    Zr425  O428      0.99167      .   S
    N59    O428      1.99808      .   S
    Zr425  O429      1.03281      .   S
    N66    O429      2.06468      .   S
    Zr425  O430      1.02240      .   S
    N87    O430      2.05470      .   S
    Zr425  O431      1.00561      .   S
    N13    O431      2.02899      .   S
