# CIF file generated by openbabel 2.4.90, see http://openbabel.sf.net
data_I
_chemical_name_common ''
_cell_length_a 9.8895
_cell_length_b 14.0466
_cell_length_c 14.0477
_cell_angle_alpha 82.8964
_cell_angle_beta 69.3924
_cell_angle_gamma 69.4098
_space_group_name_H-M_alt 'P 1'
_space_group_name_Hall 'P 1'
loop_
    _symmetry_equiv_pos_as_xyz
    x,y,z
loop_
    _atom_site_label
    _atom_site_type_symbol
    _atom_site_fract_x
    _atom_site_fract_y
    _atom_site_fract_z
    _atom_site_occupancy
    H0      H    0.22069   0.16329   0.90458   1.000
    H1      H    0.29002   0.83683   0.09533   1.000
    H2      H    0.61462   0.09532   0.16328   1.000
    H3      H    0.87555   0.90459   0.83673   1.000
    H4      H    0.79048   0.09535   0.83683   1.000
    H5      H    0.72057   0.90457   0.16327   1.000
    H6      H    0.37513   0.83675   0.90457   1.000
    H7      H    0.11468   0.16329   0.09532   1.000
    C8      C    0.23212   0.09226   0.94712   1.000
    C9      C    0.27235   0.90783   0.05278   1.000
    C10     C    0.67511   0.05279   0.09226   1.000
    C11     C    0.82141   0.94712   0.90778   1.000
    C12     C    0.77268   0.05280   0.90783   1.000
    C13     C    0.73212   0.94711   0.09224   1.000
    C14     C    0.32110   0.90780   0.94711   1.000
    C15     C    0.17506   0.09227   0.05279   1.000
    C16     C    0.30346   0.00002   0.89369   1.000
    C17     C    0.19691   0.00005   0.10621   1.000
    C18     C    0.69709   0.10623   0.00006   1.000
    C19     C    0.80360   0.89370   1.00000   1.000
loop_
    _geom_bond_atom_site_label_1
    _geom_bond_atom_site_label_2
    _geom_bond_distance
    _geom_bond_site_symmetry_2
    _ccdc_geom_bond_type
    C18    C10       1.40157      .   S
    C18    C12       1.40168  1_554   S
    C9     H1        1.08904      .   S
    C9     C17       1.40166  1_565   S
    C9     C14       1.38998  1_554   S
    C15    H7        1.08912      .   S
    C15    C17       1.40163      .   S
    C15    C8        1.39000  1_554   S
    C13    C10       1.39018  1_565   S
    C13    H5        1.08909      .   S
    C13    C19       1.40156  1_554   S
    C10    H2        1.08912      .   S
    H3     C11       1.08912      .   S
    H4     C12       1.08905      .   S
    C16    C14       1.40160  1_545   S
    C16    C8        1.40178      .   S
    H6     C14       1.08912      .   S
    H0     C8        1.08910      .   S
    C11    C12       1.39015  1_565   S
    C11    C19       1.40160      .   S
