# CIF file generated by openbabel 2.4.90, see http://openbabel.sf.net
data_I
_chemical_name_common ''
_cell_length_a 9.8895
_cell_length_b 14.0466
_cell_length_c 14.0477
_cell_angle_alpha 82.8964
_cell_angle_beta 69.3924
_cell_angle_gamma 69.4098
_space_group_name_H-M_alt 'P 1'
_space_group_name_Hall 'P 1'
loop_
    _symmetry_equiv_pos_as_xyz
    x,y,z
loop_
    _atom_site_label
    _atom_site_type_symbol
    _atom_site_fract_x
    _atom_site_fract_y
    _atom_site_fract_z
    _atom_site_occupancy
    Cd0     Cd   0.89832   0.15523   0.41124   1.000
    Cd1     Cd   0.69026   0.41125   0.84491   1.000
    Cd2     Cd   0.94641   0.58877   0.15522   1.000
    Cd3     Cd   0.39835   0.41124   0.15522   1.000
    Cd4     Cd   0.96482   0.58874   0.84484   1.000
    Cd5     Cd   0.44636   0.15524   0.58876   1.000
    Cd6     Cd   0.19024   0.84493   0.41123   1.000
    H7      H    0.80237   0.71312   0.38908   1.000
    H8      H    0.90436   0.28710   0.61089   1.000
    H9      H    0.48431   0.61099   0.71316   1.000
    H10     H    0.80841   0.38932   0.28725   1.000
    H11     H    0.40431   0.61090   0.28711   1.000
    H12     H    0.30239   0.38907   0.71316   1.000
    H13     H    0.30838   0.28722   0.38932   1.000
    H14     H    0.98430   0.71315   0.61099   1.000
    H15     H    0.86360   0.77255   0.50042   1.000
    H16     H    0.13584   0.22756   0.50039   1.000
    H17     H    0.36365   0.50042   0.77255   1.000
    H18     H    0.63585   0.50038   0.22757   1.000
    C19     C    0.70212   0.71472   0.37320   1.000
    C20     C    0.78984   0.28547   0.62682   1.000
    C21     C    0.58303   0.62682   0.71471   1.000
    Cd22    Cd   0.46481   0.84484   0.58873   1.000
    C23     C    0.92461   0.37331   0.28554   1.000
    C24     C    0.28980   0.62682   0.28547   1.000
    C25     C    0.20213   0.37320   0.71474   1.000
    C26     C    0.42457   0.28554   0.37332   1.000
    C27     C    0.08302   0.71470   0.62681   1.000
    C28     C    0.82259   0.85467   0.50015   1.000
    C29     C    0.17705   0.14544   0.50021   1.000
    C30     C    0.32262   0.50014   0.85468   1.000
    C31     C    0.67706   0.50021   0.14544   1.000
    C32     C    0.36044   0.00002   0.77975   1.000
    C33     C    0.14000   0.00007   0.22015   1.000
    C34     C    0.64021   0.22016   0.00007   1.000
    C35     C    0.86052   0.77977   0.00000   1.000
    N36     N    0.55710   0.76734   0.42532   1.000
    N37     N    0.47207   0.75133   0.37490   1.000
    N38     N    0.56322   0.69119   0.29597   1.000
    N39     N    0.70974   0.66673   0.29369   1.000
    N40     N    0.67474   0.91200   0.53001   1.000
    N41     N    0.67411   0.00879   0.51769   1.000
    N42     N    0.74947   0.23286   0.57471   1.000
    N43     N    0.59804   0.24886   0.62520   1.000
    N44     N    0.55023   0.30900   0.70413   1.000
    N45     N    0.67006   0.33344   0.70637   1.000
    N46     N    0.11677   0.08807   0.46998   1.000
    N47     N    0.20101   0.99130   0.48190   1.000
    N48     N    0.67540   0.57472   0.76732   1.000
    N49     N    0.77654   0.62509   0.75121   1.000
    N50     N    0.74558   0.70396   0.69100   1.000
    N51     N    0.62348   0.70625   0.66661   1.000
    N52     N    0.41311   0.46995   0.91203   1.000
    N53     N    0.31695   0.48177   0.00880   1.000
    N54     N    0.01759   0.42540   0.23293   1.000
    N55     N    0.15307   0.37481   0.24879   1.000
    N56     N    0.14079   0.29584   0.30883   1.000
    N57     N    0.99648   0.29368   0.33338   1.000
    N58     N    0.79493   0.53021   0.08810   1.000
    N59     N    0.80780   0.51795   0.99133   1.000
    N60     N    0.24944   0.57472   0.23285   1.000
    N61     N    0.09806   0.62522   0.24883   1.000
    N62     N    0.05022   0.70414   0.30897   1.000
    N63     N    0.17003   0.70637   0.33343   1.000
    N64     N    0.61674   0.47001   0.08808   1.000
    N65     N    0.70096   0.48196   0.99132   1.000
    N66     N    0.05711   0.42533   0.76734   1.000
    N67     N    0.97206   0.37493   0.75131   1.000
    N68     N    0.06321   0.29600   0.69117   1.000
    N69     N    0.20974   0.29370   0.66673   1.000
    N70     N    0.17477   0.53001   0.91202   1.000
    N71     N    0.17415   0.51767   0.00878   1.000
    N72     N    0.51752   0.23293   0.42540   1.000
    N73     N    0.65301   0.24883   0.37483   1.000
    N74     N    0.64073   0.30891   0.29589   1.000
    N75     N    0.49644   0.33343   0.29371   1.000
    N76     N    0.29490   0.08811   0.53021   1.000
    N77     N    0.30780   0.99133   0.51791   1.000
    N78     N    0.17543   0.76734   0.57472   1.000
    N79     N    0.27656   0.75122   0.62508   1.000
    N80     N    0.24558   0.69100   0.70393   1.000
    N81     N    0.12346   0.66660   0.70623   1.000
    N82     N    0.91309   0.91204   0.46998   1.000
    N83     N    0.81692   0.00881   0.48181   1.000
    O84     O    0.35951   0.92531   0.73717   1.000
    O85     O    0.02202   0.07484   0.26278   1.000
    O86     O    0.71567   0.26278   0.92531   1.000
    O87     O    0.90401   0.73718   0.07468   1.000
    O88     O    0.52226   0.26277   0.07485   1.000
    O89     O    0.85959   0.73718   0.92529   1.000
    O90     O    0.40397   0.07471   0.73718   1.000
    O91     O    0.21547   0.92533   0.26276   1.000
loop_
    _geom_bond_atom_site_label_1
    _geom_bond_atom_site_label_2
    _geom_bond_distance
    _geom_bond_site_symmetry_2
    _ccdc_geom_bond_type
    C35    O87       1.27468      .   S
    C35    O89       1.27483  1_554   S
    C34    O88       1.27446      .   S
    C34    O86       1.27481  1_554   S
    N71    N53       1.32213      .   S
    N71    Cd2       2.44261  1_455   S
    N71    N70       1.34701  1_554   S
    N53    Cd3       2.44149      .   S
    N53    N52       1.34704  1_554   S
    O87    Cd2       2.22205      .   S
    O88    Cd3       2.22180      .   S
    N64    C31       1.33637      .   S
    N64    Cd3       2.42146      .   S
    N64    N65       1.34703  1_554   S
    N58    C31       1.33639      .   S
    N58    Cd2       2.42125      .   S
    N58    N59       1.34706  1_554   S
    C31    H18       1.07989      .   S
    Cd3    N60       2.39616      .   S
    Cd3    N55       2.51704      .   S
    Cd3    N75       2.44494      .   S
    Cd2    N54       2.39549  1_655   S
    Cd2    N61       2.51706  1_655   S
    Cd2    N39       2.44544      .   S
    C33    O91       1.27478  1_545   S
    C33    O85       1.27467      .   S
    N60    N61       1.36043      .   S
    N60    C24       1.33718      .   S
    N54    N55       1.36058      .   S
    N54    C23       1.33716  1_455   S
    N55    N56       1.32214      .   S
    N61    N62       1.32208      .   S
    O91    Cd6       2.22202      .   S
    O85    Cd0       2.22171  1_455   S
    C24    H11       1.08254      .   S
    C24    N63       1.34128      .   S
    C23    H10       1.08255      .   S
    C23    N57       1.34125      .   S
    N39    N38       1.35588      .   S
    N39    C19       1.34121      .   S
    N75    N74       1.35577      .   S
    N75    C26       1.34122      .   S
    N74    N73       1.32215      .   S
    N38    N37       1.32217      .   S
    N56    N57       1.35572  1_455   S
    N62    N63       1.35580      .   S
    N57    Cd0       2.44447      .   S
    N63    Cd6       2.44452      .   S
    C19    H7        1.08259      .   S
    C19    N36       1.33725      .   S
    C26    H13       1.08255      .   S
    C26    N72       1.33720      .   S
    N73    Cd0       2.51784      .   S
    N73    N72       1.36050      .   S
    N37    Cd6       2.51883      .   S
    N37    N36       1.36045      .   S
    Cd6    N82       2.42182  1_455   S
    Cd6    N47       2.44082      .   S
    Cd6    N78       2.39588      .   S
    Cd0    N46       2.42212  1_655   S
    Cd0    N83       2.44110      .   S
    Cd0    N42       2.39587      .   S
    N36    Cd22      2.39418      .   S
    N72    Cd5       2.39514      .   S
    N82    N83       1.34727  1_565   S
    N82    C28       1.33632      .   S
    N46    N47       1.34722  1_545   S
    N46    C29       1.33635      .   S
    N83    N41       1.32207      .   S
    N47    N77       1.32210      .   S
    C28    H15       1.07989      .   S
    C28    N40       1.33637      .   S
    C29    H16       1.07989      .   S
    C29    N76       1.33642      .   S
    N41    N40       1.34714  1_545   S
    N41    Cd5       2.44289      .   S
    N77    N76       1.34721  1_565   S
    N77    Cd22      2.44300      .   S
    N40    Cd22      2.42085      .   S
    N76    Cd5       2.42103      .   S
    N42    N43       1.36060      .   S
    N42    C20       1.33720      .   S
    N78    N79       1.36054      .   S
    N78    C27       1.33719      .   S
    Cd22   N79       2.51849      .   S
    Cd22   N51       2.44583      .   S
    Cd22   O84       2.22180      .   S
    Cd5    N43       2.51727      .   S
    Cd5    N69       2.44538      .   S
    Cd5    O90       2.22199      .   S
    H8     C20       1.08254      .   S
    H14    C27       1.08256  1_655   S
    N79    N80       1.32215      .   S
    N43    N44       1.32214      .   S
    C27    N81       1.34122      .   S
    C20    N45       1.34128      .   S
    N51    N50       1.35553      .   S
    N51    C21       1.34119      .   S
    N69    N68       1.35588      .   S
    N69    C25       1.34121      .   S
    N50    N49       1.32218      .   S
    N68    N67       1.32219  1_455   S
    N80    N81       1.35573      .   S
    N44    N45       1.35578      .   S
    N81    Cd4       2.44509  1_455   S
    N45    Cd1       2.44457      .   S
    H12    C25       1.08260      .   S
    H9     C21       1.08255      .   S
    C21    N48       1.33707      .   S
    C25    N66       1.33725      .   S
    O84    C32       1.27483  1_565   S
    O90    C32       1.27475      .   S
    N49    N48       1.36049      .   S
    N49    Cd4       2.51933      .   S
    N67    N66       1.36044  1_655   S
    N67    Cd1       2.51843      .   S
    N48    Cd1       2.39555      .   S
    N66    Cd4       2.39414  1_455   S
    H17    C30       1.07989      .   S
    Cd4    N70       2.42160  1_655   S
    Cd4    O89       2.22188      .   S
    Cd4    N59       2.44234      .   S
    Cd1    N52       2.42170      .   S
    Cd1    O86       2.22191      .   S
    Cd1    N65       2.44123      .   S
    C30    N70       1.33634      .   S
    C30    N52       1.33637      .   S
    N65    N59       1.32209      .   S
