# CIF file generated by openbabel 2.4.90, see http://openbabel.sf.net
data_I
_chemical_name_common ''
_cell_length_a 9.8895
_cell_length_b 14.0466
_cell_length_c 14.0477
_cell_angle_alpha 82.8964
_cell_angle_beta 69.3924
_cell_angle_gamma 69.4098
_space_group_name_H-M_alt 'P 1'
_space_group_name_Hall 'P 1'
loop_
    _symmetry_equiv_pos_as_xyz
    x,y,z
loop_
    _atom_site_label
    _atom_site_type_symbol
    _atom_site_fract_x
    _atom_site_fract_y
    _atom_site_fract_z
    _atom_site_occupancy
    Cd0     Cd   0.89832   0.15523   0.41124   1.000
    Cd1     Cd   0.69026   0.41125   0.84491   1.000
    Cd2     Cd   0.94641   0.58877   0.15522   1.000
    Cd3     Cd   0.39835   0.41124   0.15522   1.000
    Cd4     Cd   0.96482   0.58874   0.84484   1.000
    Cd5     Cd   0.44636   0.15524   0.58876   1.000
    Cd6     Cd   0.19024   0.84493   0.41123   1.000
    Cd7     Cd   0.46481   0.84484   0.58873   1.000
