# CIF file generated by openbabel 2.4.90, see http://openbabel.sf.net
data_I
_chemical_name_common ''
_cell_length_a 9.8895
_cell_length_b 14.0466
_cell_length_c 14.0477
_cell_angle_alpha 82.8964
_cell_angle_beta 69.3924
_cell_angle_gamma 69.4098
_space_group_name_H-M_alt 'P 1'
_space_group_name_Hall 'P 1'
loop_
    _symmetry_equiv_pos_as_xyz
    x,y,z
loop_
    _atom_site_label
    _atom_site_type_symbol
    _atom_site_fract_x
    _atom_site_fract_y
    _atom_site_fract_z
    _atom_site_occupancy
    H0      H    0.80237   0.71312   0.38908   1.000
    H1      H    0.90436   0.28710   0.61089   1.000
    H2      H    0.48431   0.61099   0.71316   1.000
    H3      H    0.80841   0.38932   0.28725   1.000
    H4      H    0.40431   0.61090   0.28711   1.000
    H5      H    0.30239   0.38907   0.71316   1.000
    H6      H    0.30838   0.28722   0.38932   1.000
    H7      H    0.98430   0.71315   0.61099   1.000
    H8      H    0.86360   0.77255   0.50042   1.000
    H9      H    0.13584   0.22756   0.50039   1.000
    H10     H    0.36365   0.50042   0.77255   1.000
    H11     H    0.63585   0.50038   0.22757   1.000
    C12     C    0.70212   0.71472   0.37320   1.000
    C13     C    0.78984   0.28547   0.62682   1.000
    C14     C    0.58303   0.62682   0.71471   1.000
    C15     C    0.92461   0.37331   0.28554   1.000
    C16     C    0.28980   0.62682   0.28547   1.000
    C17     C    0.20213   0.37320   0.71474   1.000
    C18     C    0.42457   0.28554   0.37332   1.000
    C19     C    0.08302   0.71470   0.62681   1.000
    C20     C    0.82259   0.85467   0.50015   1.000
    C21     C    0.17705   0.14544   0.50021   1.000
    C22     C    0.32262   0.50014   0.85468   1.000
    C23     C    0.67706   0.50021   0.14544   1.000
    C24     C    0.36044   0.00002   0.77975   1.000
    C25     C    0.14000   0.00007   0.22015   1.000
    C26     C    0.64021   0.22016   0.00007   1.000
    C27     C    0.86052   0.77977   0.00000   1.000
    N28     N    0.55710   0.76734   0.42532   1.000
    N29     N    0.47207   0.75133   0.37490   1.000
    N30     N    0.56322   0.69119   0.29597   1.000
    N31     N    0.70974   0.66673   0.29369   1.000
    N32     N    0.67474   0.91200   0.53001   1.000
    N33     N    0.67411   0.00879   0.51769   1.000
    N34     N    0.74947   0.23286   0.57471   1.000
    N35     N    0.59804   0.24886   0.62520   1.000
    N36     N    0.55023   0.30900   0.70413   1.000
    N37     N    0.67006   0.33344   0.70637   1.000
    N38     N    0.11677   0.08807   0.46998   1.000
    N39     N    0.20101   0.99130   0.48190   1.000
    N40     N    0.67540   0.57472   0.76732   1.000
    N41     N    0.77654   0.62509   0.75121   1.000
    N42     N    0.74558   0.70396   0.69100   1.000
    N43     N    0.62348   0.70625   0.66661   1.000
    N44     N    0.41311   0.46995   0.91203   1.000
    N45     N    0.31695   0.48177   0.00880   1.000
    N46     N    0.01759   0.42540   0.23293   1.000
    N47     N    0.15307   0.37481   0.24879   1.000
    N48     N    0.14079   0.29584   0.30883   1.000
    N49     N    0.99648   0.29368   0.33338   1.000
    N50     N    0.79493   0.53021   0.08810   1.000
    N51     N    0.80780   0.51795   0.99133   1.000
    N52     N    0.24944   0.57472   0.23285   1.000
    N53     N    0.09806   0.62522   0.24883   1.000
    N54     N    0.05022   0.70414   0.30897   1.000
    N55     N    0.17003   0.70637   0.33343   1.000
    N56     N    0.61674   0.47001   0.08808   1.000
    N57     N    0.70096   0.48196   0.99132   1.000
    N58     N    0.05711   0.42533   0.76734   1.000
    N59     N    0.97206   0.37493   0.75131   1.000
    N60     N    0.06321   0.29600   0.69117   1.000
    N61     N    0.20974   0.29370   0.66673   1.000
    N62     N    0.17477   0.53001   0.91202   1.000
    N63     N    0.17415   0.51767   0.00878   1.000
    N64     N    0.51752   0.23293   0.42540   1.000
    N65     N    0.65301   0.24883   0.37483   1.000
    N66     N    0.64073   0.30891   0.29589   1.000
    N67     N    0.49644   0.33343   0.29371   1.000
    N68     N    0.29490   0.08811   0.53021   1.000
    N69     N    0.30780   0.99133   0.51791   1.000
    N70     N    0.17543   0.76734   0.57472   1.000
    N71     N    0.27656   0.75122   0.62508   1.000
    N72     N    0.24558   0.69100   0.70393   1.000
    N73     N    0.12346   0.66660   0.70623   1.000
    N74     N    0.91309   0.91204   0.46998   1.000
    N75     N    0.81692   0.00881   0.48181   1.000
    O76     O    0.35951   0.92531   0.73717   1.000
    O77     O    0.02202   0.07484   0.26278   1.000
    O78     O    0.71567   0.26278   0.92531   1.000
    O79     O    0.90401   0.73718   0.07468   1.000
    O80     O    0.52226   0.26277   0.07485   1.000
    O81     O    0.85959   0.73718   0.92529   1.000
    O82     O    0.40397   0.07471   0.73718   1.000
    O83     O    0.21547   0.92533   0.26276   1.000
loop_
    _geom_bond_atom_site_label_1
    _geom_bond_atom_site_label_2
    _geom_bond_distance
    _geom_bond_site_symmetry_2
    _ccdc_geom_bond_type
    C27    O79       1.27468      .   S
    C27    O81       1.27483  1_554   S
    C26    O80       1.27446      .   S
    C26    O78       1.27481  1_554   S
    N63    N45       1.32213      .   S
    N63    N62       1.34701  1_554   S
    N45    N44       1.34704  1_554   S
    N56    C23       1.33637      .   S
    N56    N57       1.34703  1_554   S
    N50    C23       1.33639      .   S
    N50    N51       1.34706  1_554   S
    C23    H11       1.07989      .   S
    C25    O83       1.27478  1_545   S
    C25    O77       1.27467      .   S
    N52    N53       1.36043      .   S
    N52    C16       1.33718      .   S
    N46    N47       1.36058      .   S
    N46    C15       1.33716  1_455   S
    N47    N48       1.32214      .   S
    N53    N54       1.32208      .   S
    C16    H4        1.08254      .   S
    C16    N55       1.34128      .   S
    C15    H3        1.08255      .   S
    C15    N49       1.34125      .   S
    N31    N30       1.35588      .   S
    N31    C12       1.34121      .   S
    N67    N66       1.35577      .   S
    N67    C18       1.34122      .   S
    N66    N65       1.32215      .   S
    N30    N29       1.32217      .   S
    N48    N49       1.35572  1_455   S
    N54    N55       1.35580      .   S
    C12    H0        1.08259      .   S
    C12    N28       1.33725      .   S
    C18    H6        1.08255      .   S
    C18    N64       1.33720      .   S
    N65    N64       1.36050      .   S
    N29    N28       1.36045      .   S
    N74    N75       1.34727  1_565   S
    N74    C20       1.33632      .   S
    N38    N39       1.34722  1_545   S
    N38    C21       1.33635      .   S
    N75    N33       1.32207      .   S
    N39    N69       1.32210      .   S
    C20    H8        1.07989      .   S
    C20    N32       1.33637      .   S
    C21    H9        1.07989      .   S
    C21    N68       1.33642      .   S
    N33    N32       1.34714  1_545   S
    N69    N68       1.34721  1_565   S
    N34    N35       1.36060      .   S
    N34    C13       1.33720      .   S
    N70    N71       1.36054      .   S
    N70    C19       1.33719      .   S
    H1     C13       1.08254      .   S
    H7     C19       1.08256  1_655   S
    N71    N72       1.32215      .   S
    N35    N36       1.32214      .   S
    C19    N73       1.34122      .   S
    C13    N37       1.34128      .   S
    N43    N42       1.35553      .   S
    N43    C14       1.34119      .   S
    N61    N60       1.35588      .   S
    N61    C17       1.34121      .   S
    N42    N41       1.32218      .   S
    N60    N59       1.32219  1_455   S
    N72    N73       1.35573      .   S
    N36    N37       1.35578      .   S
    H5     C17       1.08260      .   S
    H2     C14       1.08255      .   S
    C14    N40       1.33707      .   S
    C17    N58       1.33725      .   S
    O76    C24       1.27483  1_565   S
    O82    C24       1.27475      .   S
    N41    N40       1.36049      .   S
    N59    N58       1.36044  1_655   S
    H10    C22       1.07989      .   S
    C22    N62       1.33634      .   S
    C22    N44       1.33637      .   S
    N57    N51       1.32209      .   S
