# CIF file generated by openbabel 2.4.90, see http://openbabel.sf.net
data_I
_chemical_name_common ''
_cell_length_a 9.8895
_cell_length_b 14.0466
_cell_length_c 14.0477
_cell_angle_alpha 82.8964
_cell_angle_beta 69.3924
_cell_angle_gamma 69.4098
_space_group_name_H-M_alt 'P 1'
_space_group_name_Hall 'P 1'
loop_
    _symmetry_equiv_pos_as_xyz
    x,y,z
loop_
    _atom_site_label
    _atom_site_type_symbol
    _atom_site_fract_x
    _atom_site_fract_y
    _atom_site_fract_z
    _atom_site_occupancy
    Zr0     Zr   0.46481   0.84484   0.58873   1.000
    Zr1     Zr   0.89832   0.15523   0.41124   1.000
    Zr2     Zr   0.69026   0.41125   0.84491   1.000
    Zr3     Zr   0.94641   0.58877   0.15522   1.000
    Zr4     Zr   0.39835   0.41124   0.15522   1.000
    Zr5     Zr   0.96482   0.58874   0.84484   1.000
    Zr6     Zr   0.44636   0.15524   0.58876   1.000
    Zr7     Zr   0.19024   0.84493   0.41123   1.000
    N8      N    0.75032   0.99996   0.00003   1.000
    N9      N    0.25015   0.00004   0.99995   1.000
    C10     C    0.62605   0.24857   0.00008   1.000
    O11     O    0.66777   0.16507   0.00006   1.000
    O12     O    0.66451   0.29279   0.94260   1.000
    O13     O    0.54318   0.29279   0.05756   1.000
    C14     C    0.29421   0.49999   0.91148   1.000
    O15     O    0.32593   0.47325   0.99674   1.000
    O16     O    0.17724   0.52661   0.99674   1.000
    O17     O    0.18200   0.52968   0.89495   1.000
    O18     O    0.42295   0.47030   0.89497   1.000
    C19     C    0.14806   0.71734   0.64130   1.000
    O20     O    0.25937   0.75768   0.62410   1.000
    O21     O    0.16545   0.76173   0.56713   1.000
    O22     O    0.09610   0.67250   0.70842   1.000
    C23     C    0.37464   0.00001   0.75137   1.000
    O24     O    0.33285   0.00002   0.83485   1.000
    O25     O    0.39990   0.05749   0.70717   1.000
    O26     O    0.39340   0.94254   0.70716   1.000
    C27     C    0.70556   0.50012   0.08864   1.000
    O28     O    0.70058   0.47336   0.00338   1.000
    O29     O    0.78811   0.52981   0.10515   1.000
    O30     O    0.79593   0.52673   0.00336   1.000
    O31     O    0.60655   0.47037   0.10514   1.000
    C32     C    0.64806   0.64131   0.71734   1.000
    O33     O    0.59610   0.70843   0.67250   1.000
    O34     O    0.75937   0.62411   0.75768   1.000
    O35     O    0.66544   0.56715   0.76173   1.000
    C36     C    0.63444   0.71740   0.35869   1.000
    O37     O    0.73125   0.67258   0.29157   1.000
    O38     O    0.48280   0.75777   0.37588   1.000
    O39     O    0.57270   0.76175   0.43286   1.000
    C40     C    0.00682   0.35873   0.28279   1.000
    O41     O    0.97711   0.29159   0.32755   1.000
    O42     O    0.14127   0.37588   0.24239   1.000
    O43     O    0.99441   0.43290   0.23843   1.000
    C44     C    0.21031   0.64136   0.28278   1.000
    O45     O    0.26710   0.56717   0.23841   1.000
    O46     O    0.11627   0.62418   0.24240   1.000
    O47     O    0.19522   0.70850   0.32755   1.000
    C48     C    0.20556   0.08864   0.50010   1.000
    O49     O    0.20059   0.00338   0.47333   1.000
    O50     O    0.29593   0.00336   0.52671   1.000
    O51     O    0.10655   0.10514   0.47036   1.000
    O52     O    0.28809   0.10516   0.52979   1.000
    C53     C    0.12583   0.00008   0.24856   1.000
    O54     O    0.04300   0.05756   0.29279   1.000
    O55     O    0.16757   0.00007   0.16506   1.000
    O56     O    0.16434   0.94261   0.29278   1.000
    C57     C    0.50678   0.28281   0.35874   1.000
    O58     O    0.64122   0.24242   0.37589   1.000
    O59     O    0.47709   0.32757   0.29161   1.000
    O60     O    0.49436   0.23845   0.43291   1.000
    C61     C    0.13444   0.35871   0.71741   1.000
    O62     O    0.07270   0.43287   0.76175   1.000
    O63     O    0.98280   0.37590   0.75776   1.000
    O64     O    0.23124   0.29159   0.67258   1.000
    C65     C    0.79417   0.91148   0.50001   1.000
    O66     O    0.82590   0.99675   0.47327   1.000
    O67     O    0.68197   0.89495   0.52969   1.000
    O68     O    0.67720   0.99674   0.52662   1.000
    O69     O    0.92292   0.89498   0.47031   1.000
    C70     C    0.71033   0.28279   0.64135   1.000
    O71     O    0.76711   0.23842   0.56716   1.000
    O72     O    0.69525   0.32757   0.70850   1.000
    O73     O    0.61627   0.24242   0.62417   1.000
    C74     C    0.87471   0.75138   0.99999   1.000
    O75     O    0.83295   0.83486   0.00000   1.000
    O76     O    0.89996   0.70718   0.05747   1.000
    O77     O    0.89346   0.70717   0.94253   1.000
loop_
    _geom_bond_atom_site_label_1
    _geom_bond_atom_site_label_2
    _geom_bond_distance
    _geom_bond_site_symmetry_2
    _ccdc_geom_bond_type
    C10    O11       1.09793      .   S
    N8     O11       2.17115  1_565   S
    C10    O12       1.00423  1_554   S
    Zr2    O12       2.05034      .   S
    C10    O13       1.00478      .   S
    Zr4    O13       2.05114      .   S
    C14    O15       1.32082      .   S
    Zr4    O15       2.53608  1_554   S
    C14    O16       1.32050      .   S
    Zr3    O16       2.53603  1_654   S
    C14    O17       1.13623      .   S
    Zr5    O17       2.33742  1_655   S
    C14    O18       1.13634      .   S
    Zr2    O18       2.33759      .   S
    C19    O20       1.34504      .   S
    Zr0    O20       2.60035      .   S
    C19    O21       1.13687      .   S
    Zr7    O21       2.32655      .   S
    C19    O22       1.13551      .   S
    Zr5    O22       2.34690  1_655   S
    C23    O24       1.09773      .   S
    N9     O24       2.17087      .   S
    C23    O25       1.00425      .   S
    Zr6    O25       2.05033      .   S
    C23    O26       1.00463  1_545   S
    Zr0    O26       2.05079      .   S
    C27    O28       1.32063      .   S
    Zr2    O28       2.53571  1_556   S
    C27    O29       1.13618      .   S
    Zr3    O29       2.33720      .   S
    C27    O30       1.32068      .   S
    Zr5    O30       2.53620  1_556   S
    C27    O31       1.13624      .   S
    Zr4    O31       2.33736      .   S
    C32    O33       1.13568      .   S
    Zr0    O33       2.34743      .   S
    C32    O34       1.34524      .   S
    Zr5    O34       2.60098      .   S
    C32    O35       1.13683      .   S
    Zr2    O35       2.32637      .   S
    C36    O37       1.13559      .   S
    Zr3    O37       2.34714      .   S
    C36    O38       1.34521      .   S
    Zr7    O38       2.60073      .   S
    C36    O39       1.13642      .   S
    Zr0    O39       2.32527      .   S
    C40    O41       1.13544  1_455   S
    Zr1    O41       2.34656      .   S
    C40    O42       1.34468      .   S
    Zr4    O42       2.59930      .   S
    C40    O43       1.13678  1_455   S
    Zr3    O43       2.32628      .   S
    C44    O45       1.13690      .   S
    Zr4    O45       2.32669      .   S
    C44    O46       1.34458      .   S
    Zr3    O46       2.59918  1_655   S
    C44    O47       1.13538      .   S
    Zr7    O47       2.34650      .   S
    C48    O49       1.32057      .   S
    Zr7    O49       2.53546  1_565   S
    C48    O50       1.32090      .   S
    Zr0    O50       2.53674  1_565   S
    C48    O51       1.13641      .   S
    Zr1    O51       2.33785  1_655   S
    C48    O52       1.13615      .   S
    Zr6    O52       2.33707      .   S
    C53    O54       1.00470      .   S
    Zr1    O54       2.05094  1_655   S
    C53    O55       1.09790      .   S
    N9     O55       2.17105  1_556   S
    C53    O56       1.00441  1_545   S
    Zr7    O56       2.05063      .   S
    C57    O58       1.34490      .   S
    Zr1    O58       2.59990      .   S
    C57    O59       1.13555      .   S
    Zr4    O59       2.34688      .   S
    C57    O60       1.13669      .   S
    Zr6    O60       2.32602      .   S
    C61    O62       1.13642      .   S
    Zr5    O62       2.32525  1_655   S
    C61    O63       1.34510  1_455   S
    Zr2    O63       2.60040      .   S
    C61    O64       1.13560      .   S
    Zr6    O64       2.34712      .   S
    C65    O66       1.32069      .   S
    Zr1    O66       2.53575  1_545   S
    C65    O67       1.13602      .   S
    Zr0    O67       2.33684      .   S
    C65    O68       1.32069      .   S
    Zr6    O68       2.53638  1_545   S
    C65    O69       1.13637      .   S
    Zr7    O69       2.33767  1_455   S
    C70    O71       1.13686      .   S
    Zr1    O71       2.32653      .   S
    C70    O72       1.13542      .   S
    Zr2    O72       2.34657      .   S
    C70    O73       1.34471      .   S
    Zr6    O73       2.59940      .   S
    C74    O75       1.09775  1_556   S
    N8     O75       2.17092      .   S
    C74    O76       1.00435  1_556   S
    Zr3    O76       2.05052      .   S
    C74    O77       1.00459      .   S
    Zr5    O77       2.05079      .   S
