# CIF file generated by openbabel 2.4.90, see http://openbabel.sf.net
data_I
_chemical_name_common ''
_cell_length_a 9.8895
_cell_length_b 14.0466
_cell_length_c 14.0477
_cell_angle_alpha 82.8964
_cell_angle_beta 69.3924
_cell_angle_gamma 69.4098
_space_group_name_H-M_alt 'P 1'
_space_group_name_Hall 'P 1'
loop_
    _symmetry_equiv_pos_as_xyz
    x,y,z
loop_
    _atom_site_label
    _atom_site_type_symbol
    _atom_site_fract_x
    _atom_site_fract_y
    _atom_site_fract_z
    _atom_site_occupancy
    Zr0     Zr   0.46481   0.84484   0.58873   1.000
    Zr1     Zr   0.89832   0.15523   0.41124   1.000
    Zr2     Zr   0.69026   0.41125   0.84491   1.000
    Zr3     Zr   0.94641   0.58877   0.15522   1.000
    Zr4     Zr   0.39835   0.41124   0.15522   1.000
    Zr5     Zr   0.96482   0.58874   0.84484   1.000
    Zr6     Zr   0.44636   0.15524   0.58876   1.000
    Zr7     Zr   0.19024   0.84493   0.41123   1.000
    Zr8     Zr   0.80237   0.71312   0.38908   1.000
    Zr9     Zr   0.90436   0.28710   0.61089   1.000
    Zr10    Zr   0.48431   0.61099   0.71316   1.000
    Zr11    Zr   0.80841   0.38932   0.28725   1.000
    Zr12    Zr   0.40431   0.61090   0.28711   1.000
    Zr13    Zr   0.30239   0.38907   0.71316   1.000
    Zr14    Zr   0.30838   0.28722   0.38932   1.000
    Zr15    Zr   0.98430   0.71315   0.61099   1.000
    Zr16    Zr   0.86360   0.77255   0.50042   1.000
    Zr17    Zr   0.13584   0.22756   0.50039   1.000
    Zr18    Zr   0.36365   0.50042   0.77255   1.000
    Zr19    Zr   0.63585   0.50038   0.22757   1.000
    Zr20    Zr   0.70212   0.71472   0.37320   1.000
    Zr21    Zr   0.78984   0.28547   0.62682   1.000
    Zr22    Zr   0.58303   0.62682   0.71471   1.000
    Zr23    Zr   0.92461   0.37331   0.28554   1.000
    Zr24    Zr   0.28980   0.62682   0.28547   1.000
    Zr25    Zr   0.20213   0.37320   0.71474   1.000
    Zr26    Zr   0.42457   0.28554   0.37332   1.000
    Zr27    Zr   0.08302   0.71470   0.62681   1.000
    Zr28    Zr   0.82259   0.85467   0.50015   1.000
    Zr29    Zr   0.17705   0.14544   0.50021   1.000
    Zr30    Zr   0.32262   0.50014   0.85468   1.000
    Zr31    Zr   0.67706   0.50021   0.14544   1.000
    Zr32    Zr   0.36044   0.00002   0.77975   1.000
    Zr33    Zr   0.14000   0.00007   0.22015   1.000
    Zr34    Zr   0.64021   0.22016   0.00007   1.000
    Zr35    Zr   0.86052   0.77977   0.00000   1.000
    Zr36    Zr   0.55710   0.76734   0.42532   1.000
    Zr37    Zr   0.47207   0.75133   0.37490   1.000
    Zr38    Zr   0.56322   0.69119   0.29597   1.000
    Zr39    Zr   0.70974   0.66673   0.29369   1.000
    Zr40    Zr   0.67474   0.91200   0.53001   1.000
    Zr41    Zr   0.67411   0.00879   0.51769   1.000
    Zr42    Zr   0.74947   0.23286   0.57471   1.000
    Zr43    Zr   0.59804   0.24886   0.62520   1.000
    Zr44    Zr   0.55023   0.30900   0.70413   1.000
    Zr45    Zr   0.67006   0.33344   0.70637   1.000
    Zr46    Zr   0.11677   0.08807   0.46998   1.000
    Zr47    Zr   0.20101   0.99130   0.48190   1.000
    Zr48    Zr   0.67540   0.57472   0.76732   1.000
    Zr49    Zr   0.77654   0.62509   0.75121   1.000
    Zr50    Zr   0.74558   0.70396   0.69100   1.000
    Zr51    Zr   0.62348   0.70625   0.66661   1.000
    Zr52    Zr   0.41311   0.46995   0.91203   1.000
    Zr53    Zr   0.31695   0.48177   0.00880   1.000
    Zr54    Zr   0.01759   0.42540   0.23293   1.000
    Zr55    Zr   0.15307   0.37481   0.24879   1.000
    Zr56    Zr   0.14079   0.29584   0.30883   1.000
    Zr57    Zr   0.99648   0.29368   0.33338   1.000
    Zr58    Zr   0.79493   0.53021   0.08810   1.000
    Zr59    Zr   0.80780   0.51795   0.99133   1.000
    Zr60    Zr   0.24944   0.57472   0.23285   1.000
    Zr61    Zr   0.09806   0.62522   0.24883   1.000
    Zr62    Zr   0.05022   0.70414   0.30897   1.000
    Zr63    Zr   0.17003   0.70637   0.33343   1.000
    Zr64    Zr   0.61674   0.47001   0.08808   1.000
    Zr65    Zr   0.70096   0.48196   0.99132   1.000
    Zr66    Zr   0.05711   0.42533   0.76734   1.000
    Zr67    Zr   0.97206   0.37493   0.75131   1.000
    Zr68    Zr   0.06321   0.29600   0.69117   1.000
    Zr69    Zr   0.20974   0.29370   0.66673   1.000
    Zr70    Zr   0.17477   0.53001   0.91202   1.000
    Zr71    Zr   0.17415   0.51767   0.00878   1.000
    Zr72    Zr   0.51752   0.23293   0.42540   1.000
    Zr73    Zr   0.65301   0.24883   0.37483   1.000
    Zr74    Zr   0.64073   0.30891   0.29589   1.000
    Zr75    Zr   0.49644   0.33343   0.29371   1.000
    Zr76    Zr   0.29490   0.08811   0.53021   1.000
    Zr77    Zr   0.30780   0.99133   0.51791   1.000
    Zr78    Zr   0.17543   0.76734   0.57472   1.000
    Zr79    Zr   0.27656   0.75122   0.62508   1.000
    Zr80    Zr   0.24558   0.69100   0.70393   1.000
    Zr81    Zr   0.12346   0.66660   0.70623   1.000
    Zr82    Zr   0.91309   0.91204   0.46998   1.000
    Zr83    Zr   0.81692   0.00881   0.48181   1.000
    Zr84    Zr   0.35951   0.92531   0.73717   1.000
    Zr85    Zr   0.02202   0.07484   0.26278   1.000
    Zr86    Zr   0.71567   0.26278   0.92531   1.000
    Zr87    Zr   0.90401   0.73718   0.07468   1.000
    Zr88    Zr   0.52226   0.26277   0.07485   1.000
    Zr89    Zr   0.85959   0.73718   0.92529   1.000
    Zr90    Zr   0.40397   0.07471   0.73718   1.000
    Zr91    Zr   0.21547   0.92533   0.26276   1.000
    O92     O    0.88226   0.75847   0.03734   1.000
    O93     O    0.86006   0.75847   0.96265   1.000
    O94     O    0.58124   0.24147   0.03746   1.000
    O95     O    0.67794   0.24147   0.96269   1.000
    O96     O    0.24555   0.49972   0.00879   1.000
    O97     O    0.06028   0.55322   0.08200   1.000
    O98     O    0.17446   0.52384   0.96040   1.000
    O99     O    0.35765   0.44650   0.08201   1.000
    O100    O    0.36503   0.47586   0.96041   1.000
    O101    O    0.92521   0.66297   0.11495   1.000
    O102    O    0.46031   0.33701   0.11504   1.000
    O103    O    0.64690   0.48511   0.11676   1.000
    O104    O    0.50754   0.44063   0.12165   1.000
    O105    O    0.65885   0.47599   0.03970   1.000
    O106    O    0.73600   0.51521   0.11677   1.000
    O107    O    0.87067   0.55949   0.12166   1.000
    O108    O    0.80137   0.52408   0.03971   1.000
    O109    O    0.65646   0.50029   0.18650   1.000
    O110    O    0.32390   0.49298   0.19403   1.000
    O111    O    0.27571   0.39302   0.20200   1.000
    O112    O    0.44739   0.37233   0.22447   1.000
    O113    O    0.98200   0.50708   0.19408   1.000
    O114    O    0.02223   0.60699   0.20203   1.000
    O115    O    0.82807   0.62775   0.22445   1.000
    O116    O    0.17774   0.96270   0.24145   1.000
    O117    O    0.08101   0.03745   0.24147   1.000
    O118    O    0.17375   0.59997   0.24084   1.000
    O119    O    0.26962   0.60077   0.25916   1.000
    O120    O    0.08533   0.40010   0.24086   1.000
    O121    O    0.97110   0.39935   0.25923   1.000
    O122    O    0.14693   0.33532   0.27881   1.000
    O123    O    0.07414   0.66468   0.27890   1.000
    O124    O    0.20286   0.88513   0.33699   1.000
    O125    O    0.96017   0.11503   0.33701   1.000
    O126    O    0.34705   0.61886   0.28629   1.000
    O127    O    0.22991   0.66660   0.30945   1.000
    O128    O    0.86651   0.38132   0.28640   1.000
    O129    O    0.96054   0.33350   0.30946   1.000
    O130    O    0.63648   0.67896   0.29483   1.000
    O131    O    0.70593   0.69073   0.33344   1.000
    O132    O    0.56859   0.32117   0.29480   1.000
    O133    O    0.46051   0.30949   0.33352   1.000
    O134    O    0.64687   0.27887   0.33536   1.000
    O135    O    0.51765   0.72126   0.33544   1.000
    O136    O    0.06863   0.29476   0.32110   1.000
    O137    O    0.11012   0.70525   0.32120   1.000
    O138    O    0.94740   0.22445   0.37231   1.000
    O139    O    0.18014   0.77565   0.37233   1.000
    O140    O    0.75224   0.71392   0.38114   1.000
    O141    O    0.62961   0.74103   0.39926   1.000
    O142    O    0.36648   0.28638   0.38132   1.000
    O143    O    0.47105   0.25924   0.39936   1.000
    O144    O    0.77566   0.20203   0.39304   1.000
    O145    O    0.58526   0.24088   0.40012   1.000
    O146    O    0.33116   0.79813   0.39307   1.000
    O147    O    0.51459   0.75933   0.40011   1.000
    O148    O    0.05167   0.87848   0.44060   1.000
    O149    O    0.19562   0.91812   0.44656   1.000
    O150    O    0.18284   0.80613   0.49297   1.000
    O151    O    0.00754   0.12165   0.44061   1.000
    O152    O    0.85762   0.08202   0.44652   1.000
    O153    O    0.82390   0.19404   0.49298   1.000
    O154    O    0.51095   0.80609   0.50703   1.000
    O155    O    0.48194   0.19408   0.50708   1.000
    O156    O    0.86500   0.96042   0.47589   1.000
    O157    O    0.86784   0.88336   0.48507   1.000
    O158    O    0.15889   0.03969   0.47594   1.000
    O159    O    0.14691   0.11675   0.48509   1.000
    O160    O    0.74552   0.00880   0.49975   1.000
    O161    O    0.25440   0.99132   0.49990   1.000
    O162    O    0.84309   0.81361   0.50029   1.000
    O163    O    0.74866   0.88334   0.51508   1.000
    O164    O    0.15644   0.18650   0.50030   1.000
    O165    O    0.23598   0.11678   0.51521   1.000
    O166    O    0.67443   0.96040   0.52385   1.000
    O167    O    0.56024   0.08201   0.55322   1.000
    O168    O    0.30135   0.03972   0.52406   1.000
    O169    O    0.38630   0.91808   0.55332   1.000
    O170    O    0.56977   0.87842   0.55937   1.000
    O171    O    0.37063   0.12168   0.55948   1.000
    O172    O    0.67376   0.24086   0.59996   1.000
    O173    O    0.76965   0.25917   0.60076   1.000
    O174    O    0.22600   0.75928   0.59990   1.000
    O175    O    0.12923   0.74102   0.60077   1.000
    O176    O    0.37068   0.79803   0.60691   1.000
    O177    O    0.54414   0.77555   0.62767   1.000
    O178    O    0.41216   0.88507   0.66295   1.000
    O179    O    0.52220   0.20205   0.60698   1.000
    O180    O    0.32805   0.22447   0.62774   1.000
    O181    O    0.42517   0.11497   0.66297   1.000
    O182    O    0.84710   0.28629   0.61886   1.000
    O183    O    0.03366   0.71393   0.61890   1.000
    O184    O    0.26107   0.72111   0.66451   1.000
    O185    O    0.57414   0.27893   0.66467   1.000
    O186    O    0.10324   0.69065   0.66652   1.000
    O187    O    0.72995   0.30945   0.66659   1.000
    O188    O    0.68453   0.70511   0.67881   1.000
    O189    O    0.60326   0.66654   0.69066   1.000
    O190    O    0.13647   0.29485   0.67895   1.000
    O191    O    0.20593   0.33345   0.69073   1.000
    O192    O    0.76106   0.66452   0.72111   1.000
    O193    O    0.01764   0.33547   0.72124   1.000
    O194    O    0.18452   0.67880   0.70508   1.000
    O195    O    0.61015   0.32122   0.70525   1.000
    O196    O    0.04414   0.62767   0.77554   1.000
    O197    O    0.68016   0.37235   0.77564   1.000
    O198    O    0.25226   0.38113   0.71395   1.000
    O199    O    0.53367   0.61891   0.71393   1.000
    O200    O    0.62921   0.60077   0.74102   1.000
    O201    O    0.12962   0.39926   0.74104   1.000
    O202    O    0.35998   0.96266   0.75846   1.000
    O203    O    0.38221   0.03736   0.75847   1.000
    O204    O    0.72597   0.59991   0.75927   1.000
    O205    O    0.87068   0.60692   0.79803   1.000
    O206    O    0.01459   0.40013   0.75933   1.000
    O207    O    0.83116   0.39309   0.79811   1.000
    O208    O    0.68283   0.49299   0.80612   1.000
    O209    O    0.01097   0.50703   0.80609   1.000
    O210    O    0.34314   0.50028   0.81361   1.000
    O211    O    0.06980   0.55937   0.87843   1.000
    O212    O    0.91221   0.66296   0.88507   1.000
    O213    O    0.88631   0.55335   0.91808   1.000
    O214    O    0.55168   0.44060   0.87847   1.000
    O215    O    0.70296   0.33702   0.88511   1.000
    O216    O    0.69561   0.44660   0.91812   1.000
    O217    O    0.24870   0.51507   0.88335   1.000
    O218    O    0.36787   0.48505   0.88335   1.000
    O219    O    0.75438   0.49995   0.99132   1.000
    N220    N    0.75032   0.99996   0.00003   1.000
    O221    O    0.79119   0.91834   0.00001   1.000
    O222    O    0.70949   0.08158   0.00004   1.000
    N223    N    0.25015   0.00004   0.99995   1.000
    O224    O    0.29105   0.00003   0.91834   1.000
    O225    O    0.20930   0.00005   0.08157   1.000
loop_
    _geom_bond_atom_site_label_1
    _geom_bond_atom_site_label_2
    _geom_bond_distance
    _geom_bond_site_symmetry_2
    _ccdc_geom_bond_type
    Zr35   O92       0.63734      .   S
    Zr87   O92       0.63734      .   S
    Zr35   O93       0.63741  1_554   S
    Zr89   O93       0.63741      .   S
    Zr34   O94       0.63723      .   S
    Zr88   O94       0.63723      .   S
    Zr34   O95       0.63741  1_554   S
    Zr86   O95       0.63741      .   S
    Zr71   O96       0.66106      .   S
    Zr53   O96       0.66106      .   S
    Zr71   O97       1.22130      .   S
    Zr3    O97       1.22130  1_655   S
    Zr71   O98       0.67351  1_554   S
    Zr70   O98       0.67351      .   S
    Zr53   O99       1.22075      .   S
    Zr4    O99       1.22075      .   S
    Zr53   O100      0.67352  1_554   S
    Zr52   O100      0.67352      .   S
    Zr87   O101      1.11102      .   S
    Zr3    O101      1.11102      .   S
    Zr88   O102      1.11090      .   S
    Zr4    O102      1.11090      .   S
    Zr64   O103      0.66818      .   S
    Zr31   O103      0.66818      .   S
    Zr64   O104      1.21073      .   S
    Zr4    O104      1.21073      .   S
    Zr64   O105      0.67352      .   S
    Zr65   O105      0.67352  1_556   S
    Zr58   O106      0.66819      .   S
    Zr31   O106      0.66819      .   S
    Zr58   O107      1.21062      .   S
    Zr3    O107      1.21062      .   S
    Zr58   O108      0.67353      .   S
    Zr59   O108      0.67353  1_556   S
    Zr31   O109      0.53994      .   S
    Zr19   O109      0.53994      .   S
    Zr4    O110      1.19808      .   S
    Zr60   O110      1.19808      .   S
    Zr4    O111      1.25852      .   S
    Zr55   O111      1.25852      .   S
    Zr4    O112      1.22247      .   S
    Zr75   O112      1.22247      .   S
    Zr3    O113      1.19775      .   S
    Zr54   O113      1.19775  1_455   S
    Zr3    O114      1.25853  1_655   S
    Zr61   O114      1.25853      .   S
    Zr3    O115      1.22272      .   S
    Zr39   O115      1.22272      .   S
    Zr33   O116      0.63739  1_545   S
    Zr91   O116      0.63739      .   S
    Zr33   O117      0.63733      .   S
    Zr85   O117      0.63733      .   S
    Zr60   O118      0.68022      .   S
    Zr61   O118      0.68022      .   S
    Zr60   O119      0.66859      .   S
    Zr24   O119      0.66859      .   S
    Zr54   O120      0.68029      .   S
    Zr55   O120      0.68029      .   S
    Zr54   O121      0.66858  1_455   S
    Zr23   O121      0.66858      .   S
    Zr55   O122      0.66107      .   S
    Zr56   O122      0.66107      .   S
    Zr61   O123      0.66104      .   S
    Zr62   O123      0.66104      .   S
    Zr91   O124      1.11101      .   S
    Zr7    O124      1.11101      .   S
    Zr85   O125      1.11085  1_455   S
    Zr1    O125      1.11085      .   S
    Zr24   O126      0.54127      .   S
    Zr12   O126      0.54127      .   S
    Zr24   O127      0.67064      .   S
    Zr63   O127      0.67064      .   S
    Zr23   O128      0.54127      .   S
    Zr11   O128      0.54127      .   S
    Zr23   O129      0.67062      .   S
    Zr57   O129      0.67062      .   S
    Zr39   O130      0.67794      .   S
    Zr38   O130      0.67794      .   S
    Zr39   O131      0.67060      .   S
    Zr20   O131      0.67060      .   S
    Zr75   O132      0.67788      .   S
    Zr74   O132      0.67788      .   S
    Zr75   O133      0.67061      .   S
    Zr26   O133      0.67061      .   S
    Zr74   O134      0.66108      .   S
    Zr73   O134      0.66108      .   S
    Zr38   O135      0.66109      .   S
    Zr37   O135      0.66109      .   S
    Zr56   O136      0.67786      .   S
    Zr57   O136      0.67786  1_655   S
    Zr62   O137      0.67790      .   S
    Zr63   O137      0.67790      .   S
    Zr57   O138      1.22223      .   S
    Zr1    O138      1.22223      .   S
    Zr63   O139      1.22226      .   S
    Zr7    O139      1.22226      .   S
    Zr20   O140      0.54130      .   S
    Zr8    O140      0.54130      .   S
    Zr20   O141      0.66863      .   S
    Zr36   O141      0.66863      .   S
    Zr26   O142      0.54128      .   S
    Zr14   O142      0.54128      .   S
    Zr26   O143      0.66860      .   S
    Zr72   O143      0.66860      .   S
    Zr73   O144      1.25892      .   S
    Zr1    O144      1.25892      .   S
    Zr73   O145      0.68025      .   S
    Zr72   O145      0.68025      .   S
    Zr37   O146      1.25941      .   S
    Zr7    O146      1.25941      .   S
    Zr37   O147      0.68023      .   S
    Zr36   O147      0.68023      .   S
    Zr7    O148      1.21091      .   S
    Zr82   O148      1.21091  1_655   S
    Zr7    O149      1.22041      .   S
    Zr47   O149      1.22041      .   S
    Zr7    O150      1.19794      .   S
    Zr78   O150      1.19794      .   S
    Zr1    O151      1.21106  1_655   S
    Zr46   O151      1.21106      .   S
    Zr1    O152      1.22055      .   S
    Zr83   O152      1.22055      .   S
    Zr1    O153      1.19794      .   S
    Zr42   O153      1.19794      .   S
    Zr36   O154      1.19709      .   S
    Zr0    O154      1.19709      .   S
    Zr72   O155      1.19757      .   S
    Zr6    O155      1.19757      .   S
    Zr82   O156      0.67363      .   S
    Zr83   O156      0.67363  1_545   S
    Zr82   O157      0.66816      .   S
    Zr28   O157      0.66816      .   S
    Zr46   O158      0.67361      .   S
    Zr47   O158      0.67361  1_565   S
    Zr46   O159      0.66818      .   S
    Zr29   O159      0.66818      .   S
    Zr83   O160      0.66104      .   S
    Zr41   O160      0.66104      .   S
    Zr47   O161      0.66105      .   S
    Zr77   O161      0.66105      .   S
    Zr28   O162      0.53995      .   S
    Zr16   O162      0.53995      .   S
    Zr28   O163      0.66819      .   S
    Zr40   O163      0.66819      .   S
    Zr29   O164      0.53994      .   S
    Zr17   O164      0.53994      .   S
    Zr29   O165      0.66821      .   S
    Zr76   O165      0.66821      .   S
    Zr41   O166      0.67357  1_545   S
    Zr40   O166      0.67357      .   S
    Zr41   O167      1.22145      .   S
    Zr6    O167      1.22145      .   S
    Zr77   O168      0.67360  1_565   S
    Zr76   O168      0.67360      .   S
    Zr77   O169      1.22150      .   S
    Zr0    O169      1.22150      .   S
    Zr40   O170      1.21042      .   S
    Zr0    O170      1.21042      .   S
    Zr76   O171      1.21051      .   S
    Zr6    O171      1.21051      .   S
    Zr42   O172      0.68030      .   S
    Zr43   O172      0.68030      .   S
    Zr42   O173      0.66860      .   S
    Zr21   O173      0.66860      .   S
    Zr78   O174      0.68027      .   S
    Zr79   O174      0.68027      .   S
    Zr78   O175      0.66860      .   S
    Zr27   O175      0.66860      .   S
    Zr0    O176      1.25925      .   S
    Zr79   O176      1.25925      .   S
    Zr0    O177      1.22291      .   S
    Zr51   O177      1.22291      .   S
    Zr0    O178      1.11090      .   S
    Zr84   O178      1.11090      .   S
    Zr6    O179      1.25863      .   S
    Zr43   O179      1.25863      .   S
    Zr6    O180      1.22269      .   S
    Zr69   O180      1.22269      .   S
    Zr6    O181      1.11100      .   S
    Zr90   O181      1.11100      .   S
    Zr9    O182      0.54127      .   S
    Zr21   O182      0.54127      .   S
    Zr15   O183      0.54128  1_655   S
    Zr27   O183      0.54128      .   S
    Zr79   O184      0.66108      .   S
    Zr80   O184      0.66108      .   S
    Zr43   O185      0.66107      .   S
    Zr44   O185      0.66107      .   S
    Zr27   O186      0.67061      .   S
    Zr81   O186      0.67061      .   S
    Zr21   O187      0.67064      .   S
    Zr45   O187      0.67064      .   S
    Zr51   O188      0.67777      .   S
    Zr50   O188      0.67777      .   S
    Zr51   O189      0.67060      .   S
    Zr22   O189      0.67060      .   S
    Zr69   O190      0.67794      .   S
    Zr68   O190      0.67794      .   S
    Zr69   O191      0.67060      .   S
    Zr25   O191      0.67060      .   S
    Zr50   O192      0.66109      .   S
    Zr49   O192      0.66109      .   S
    Zr68   O193      0.66109      .   S
    Zr67   O193      0.66109  1_655   S
    Zr80   O194      0.67786      .   S
    Zr81   O194      0.67786      .   S
    Zr44   O195      0.67789      .   S
    Zr45   O195      0.67789      .   S
    Zr81   O196      1.22255      .   S
    Zr5    O196      1.22255  1_655   S
    Zr45   O197      1.22229      .   S
    Zr2    O197      1.22229      .   S
    Zr13   O198      0.54130      .   S
    Zr25   O198      0.54130      .   S
    Zr10   O199      0.54128      .   S
    Zr22   O199      0.54128      .   S
    Zr22   O200      0.66853      .   S
    Zr48   O200      0.66853      .   S
    Zr25   O201      0.66863      .   S
    Zr66   O201      0.66863      .   S
    Zr84   O202      0.63741      .   S
    Zr32   O202      0.63741  1_545   S
    Zr90   O203      0.63737      .   S
    Zr32   O203      0.63737      .   S
    Zr49   O204      0.68025      .   S
    Zr48   O204      0.68025      .   S
    Zr49   O205      1.25967      .   S
    Zr5    O205      1.25967      .   S
    Zr67   O206      0.68022  1_655   S
    Zr66   O206      0.68022      .   S
    Zr67   O207      1.25921      .   S
    Zr2    O207      1.25921      .   S
    Zr48   O208      1.19778      .   S
    Zr2    O208      1.19778      .   S
    Zr66   O209      1.19707      .   S
    Zr5    O209      1.19707  1_655   S
    Zr18   O210      0.53995      .   S
    Zr30   O210      0.53995      .   S
    Zr5    O211      1.21080  1_655   S
    Zr70   O211      1.21080      .   S
    Zr5    O212      1.11094      .   S
    Zr89   O212      1.11094      .   S
    Zr5    O213      1.22117      .   S
    Zr59   O213      1.22117      .   S
    Zr2    O214      1.21085      .   S
    Zr52   O214      1.21085      .   S
    Zr2    O215      1.11096      .   S
    Zr86   O215      1.11096      .   S
    Zr2    O216      1.22062      .   S
    Zr65   O216      1.22062      .   S
    Zr30   O217      0.66817      .   S
    Zr70   O217      0.66817      .   S
    Zr30   O218      0.66818      .   S
    Zr52   O218      0.66818      .   S
    Zr65   O219      0.66105      .   S
    Zr59   O219      0.66105      .   S
    N220   O221      1.07317      .   S
    Zr35   O221      1.82221      .   S
    N220   O222      1.07322  1_565   S
    Zr34   O222      1.82231      .   S
    N223   O224      1.07314      .   S
    Zr32   O224      1.82219      .   S
    N223   O225      1.07314  1_556   S
    Zr33   O225      1.82224      .   S
