# CIF file generated by openbabel 2.4.90, see http://openbabel.sf.net
data_I
_chemical_name_common ''
_cell_length_a 17.215
_cell_length_b 17.395
_cell_length_c 18.482
_cell_angle_alpha 90.039
_cell_angle_beta 90.019
_cell_angle_gamma 90.14
_space_group_name_H-M_alt 'P 1'
_space_group_name_Hall 'P 1'
loop_
    _symmetry_equiv_pos_as_xyz
    x,y,z
loop_
    _atom_site_label
    _atom_site_type_symbol
    _atom_site_fract_x
    _atom_site_fract_y
    _atom_site_fract_z
    _atom_site_occupancy
    Lv0     Lv   0.00509   0.15146   0.95289   1.000
    Lv1     Lv   0.00554   0.34898   0.45258   1.000
    Lv2     Lv   0.74709   0.34546   0.26602   1.000
    Lv3     Lv   0.25259   0.84550   0.23414   1.000
    Lv4     Lv   0.50509   0.15145   0.54701   1.000
    Lv5     Lv   0.99448   0.65102   0.54738   1.000
    Lv6     Lv   0.75282   0.84574   0.26603   1.000
    Lv7     Lv   0.24716   0.34534   0.23397   1.000
    Lv8     Lv   0.49490   0.84854   0.45293   1.000
    Lv9     Lv   0.24719   0.15404   0.73391   1.000
    Lv10    Lv   0.49448   0.65091   0.95246   1.000
    Lv11    Lv   0.25290   0.65452   0.73393   1.000
    Lv12    Lv   0.75285   0.65464   0.76594   1.000
    Lv13    Lv   0.50553   0.34908   0.04751   1.000
    Lv14    Lv   0.74743   0.15429   0.76582   1.000
    Lv15    Lv   0.99492   0.84853   0.04703   1.000
