# CIF file generated by openbabel 2.4.90, see http://openbabel.sf.net
data_I
_chemical_name_common ''
_cell_length_a 17.215
_cell_length_b 17.395
_cell_length_c 18.482
_cell_angle_alpha 90.039
_cell_angle_beta 90.019
_cell_angle_gamma 90.14
_space_group_name_H-M_alt 'P 1'
_space_group_name_Hall 'P 1'
loop_
    _symmetry_equiv_pos_as_xyz
    x,y,z
loop_
    _atom_site_label
    _atom_site_type_symbol
    _atom_site_fract_x
    _atom_site_fract_y
    _atom_site_fract_z
    _atom_site_occupancy
    Cd0     Cd   0.27392   0.50669   0.47779   1.000
    Cd1     Cd   0.27274   0.99370   0.97863   1.000
    Cd2     Cd   0.77389   0.50682   0.02203   1.000
    Cd3     Cd   0.72727   0.00628   0.02134   1.000
    Cd4     Cd   0.22612   0.49317   0.97794   1.000
    Cd5     Cd   0.22717   0.00613   0.47818   1.000
    Cd6     Cd   0.72609   0.49330   0.52210   1.000
    Cd7     Cd   0.77285   0.99387   0.52180   1.000
    C8      C    0.78086   0.86561   0.60952   1.000
    C9      C    0.21796   0.36563   0.88945   1.000
    C10     C    0.34333   0.36430   0.50912   1.000
    C11     C    0.78204   0.63437   0.11052   1.000
    C12     C    0.84333   0.13578   0.49068   1.000
    C13     C    0.28081   0.86562   0.89053   1.000
    C14     C    0.84333   0.36438   0.99073   1.000
    C15     C    0.28203   0.63427   0.38900   1.000
    C16     C    0.34332   0.13556   0.01039   1.000
    C17     C    0.15668   0.63561   0.00920   1.000
    C18     C    0.71800   0.36572   0.61047   1.000
    C19     C    0.65668   0.86442   0.98958   1.000
    C20     C    0.21914   0.13438   0.39045   1.000
    C21     C    0.65667   0.63570   0.49086   1.000
    C22     C    0.15669   0.86422   0.50935   1.000
    C23     C    0.71919   0.13436   0.10944   1.000
    O24     O    0.37298   0.42390   0.47820   1.000
    O25     O    0.27382   0.35996   0.53089   1.000
    O26     O    0.79662   0.64656   0.04391   1.000
    O27     O    0.77281   0.56666   0.13655   1.000
    O28     O    0.87283   0.07627   0.52161   1.000
    O29     O    0.77375   0.13999   0.46903   1.000
    O30     O    0.29679   0.85323   0.95674   1.000
    O31     O    0.26997   0.93341   0.86521   1.000
    O32     O    0.87298   0.42403   0.02168   1.000
    O33     O    0.77379   0.35998   0.96000   1.000
    O34     O    0.29662   0.64654   0.45611   1.000
    O35     O    0.27277   0.56653   0.36344   1.000
    O36     O    0.37311   0.07549   0.98063   1.000
    O37     O    0.27347   0.14018   0.03110   1.000
    O38     O    0.79682   0.85321   0.54331   1.000
    O39     O    0.76995   0.93339   0.63490   1.000
    O40     O    0.12703   0.57596   0.97829   1.000
    O41     O    0.22622   0.64001   0.03098   1.000
    O42     O    0.70339   0.35345   0.54386   1.000
    O43     O    0.72726   0.43346   0.63652   1.000
    O44     O    0.62690   0.92450   0.01935   1.000
    O45     O    0.72654   0.85981   0.96887   1.000
    O46     O    0.20319   0.14678   0.45666   1.000
    O47     O    0.23006   0.06660   0.36507   1.000
    O48     O    0.62703   0.57610   0.52177   1.000
    O49     O    0.72618   0.64003   0.46907   1.000
    O50     O    0.20339   0.35344   0.95606   1.000
    O51     O    0.22720   0.43333   0.86342   1.000
    O52     O    0.12719   0.92374   0.47840   1.000
    O53     O    0.22628   0.86000   0.53097   1.000
    O54     O    0.70323   0.14675   0.04323   1.000
    O55     O    0.73004   0.06658   0.13476   1.000
loop_
    _geom_bond_atom_site_label_1
    _geom_bond_atom_site_label_2
    _geom_bond_distance
    _geom_bond_site_symmetry_2
    _ccdc_geom_bond_type
    C17    O41       1.26500      .   S
    C17    O40       1.28836  1_554   S
    C16    O37       1.26489      .   S
    C16    O36       1.28826  1_554   S
    O44    Cd3       2.23581  1_565   S
    O44    C19       1.28834  1_554   S
    Cd3    O54       2.51186      .   S
    Cd3    O55       2.34376      .   S
    O32    Cd2       2.23511      .   S
    O32    C14       1.28867  1_554   S
    Cd2    O26       2.49388      .   S
    Cd2    O27       2.35818      .   S
    O54    C23       1.27273      .   S
    O26    C11       1.27428      .   S
    C23    O55       1.28295      .   S
    C11    O27       1.28209      .   S
    O35    C15       1.27876      .   S
    O35    Cd0       2.35659      .   S
    O47    C20       1.28298      .   S
    O47    Cd5       2.34132      .   S
    C15    O34       1.28304      .   S
    C20    O46       1.27261      .   S
    O34    Cd0       2.49556      .   S
    O46    Cd5       2.51409      .   S
    O29    C12       1.26507      .   S
    O49    C21       1.26472      .   S
    Cd0    O24       2.23485      .   S
    Cd5    O52       2.23698  1_545   S
    O24    C10       1.28847      .   S
    O52    C22       1.28845      .   S
    C12    O28       1.28830      .   S
    C21    O48       1.28841      .   S
    C10    O25       1.26465      .   S
    C22    O53       1.26501      .   S
    O28    Cd7       2.23706  1_545   S
    O48    Cd6       2.23485      .   S
    Cd7    O38       2.51429      .   S
    Cd7    O39       2.34129      .   S
    Cd6    O42       2.49586      .   S
    Cd6    O43       2.35779      .   S
    O38    C8        1.27264      .   S
    O42    C18       1.27418      .   S
    C8     O39       1.28297      .   S
    C18    O43       1.28215      .   S
    O51    C9        1.28208      .   S
    O51    Cd4       2.35814      .   S
    O31    C13       1.28295      .   S
    O31    Cd1       2.34373      .   S
    C9     O50       1.27427      .   S
    C13    O30       1.27278      .   S
    O50    Cd4       2.49379      .   S
    O30    Cd1       2.51186      .   S
    O33    C14       1.32689      .   S
    O45    C19       1.26491      .   S
    Cd4    O40       2.23504      .   S
    Cd1    O36       2.23578  1_565   S
