# CIF file generated by openbabel 2.4.90, see http://openbabel.sf.net
data_I
_chemical_name_common ''
_cell_length_a 17.215
_cell_length_b 17.395
_cell_length_c 18.482
_cell_angle_alpha 90.039
_cell_angle_beta 90.019
_cell_angle_gamma 90.14
_space_group_name_H-M_alt 'P 1'
_space_group_name_Hall 'P 1'
loop_
    _symmetry_equiv_pos_as_xyz
    x,y,z
loop_
    _atom_site_label
    _atom_site_type_symbol
    _atom_site_fract_x
    _atom_site_fract_y
    _atom_site_fract_z
    _atom_site_occupancy
    Zr0     Zr   0.77285   0.99387   0.52180   1.000
    Zr1     Zr   0.27392   0.50669   0.47779   1.000
    Zr2     Zr   0.27274   0.99370   0.97863   1.000
    Zr3     Zr   0.77389   0.50682   0.02203   1.000
    Zr4     Zr   0.72727   0.00628   0.02134   1.000
    Zr5     Zr   0.22612   0.49317   0.97794   1.000
    Zr6     Zr   0.22717   0.00613   0.47818   1.000
    Zr7     Zr   0.72609   0.49330   0.52210   1.000
    Zr8     Zr   0.34333   0.36430   0.50912   1.000
    Zr9     Zr   0.78204   0.63437   0.11052   1.000
    Zr10    Zr   0.84333   0.13578   0.49068   1.000
    Zr11    Zr   0.28081   0.86562   0.89053   1.000
    Zr12    Zr   0.84333   0.36438   0.99073   1.000
    Zr13    Zr   0.28203   0.63427   0.38900   1.000
    Zr14    Zr   0.34332   0.13556   0.01039   1.000
    Zr15    Zr   0.78086   0.86561   0.60952   1.000
    Zr16    Zr   0.15668   0.63561   0.00920   1.000
    Zr17    Zr   0.71800   0.36572   0.61047   1.000
    Zr18    Zr   0.65668   0.86442   0.98958   1.000
    Zr19    Zr   0.21914   0.13438   0.39045   1.000
    Zr20    Zr   0.65667   0.63570   0.49086   1.000
    Zr21    Zr   0.21796   0.36563   0.88945   1.000
    Zr22    Zr   0.15669   0.86422   0.50935   1.000
    Zr23    Zr   0.71919   0.13436   0.10944   1.000
    Zr24    Zr   0.37298   0.42390   0.47820   1.000
    Zr25    Zr   0.27382   0.35996   0.53089   1.000
    Zr26    Zr   0.79662   0.64656   0.04391   1.000
    Zr27    Zr   0.77281   0.56666   0.13655   1.000
    Zr28    Zr   0.87283   0.07627   0.52161   1.000
    Zr29    Zr   0.77375   0.13999   0.46903   1.000
    Zr30    Zr   0.29679   0.85323   0.95674   1.000
    Zr31    Zr   0.26997   0.93341   0.86521   1.000
    Zr32    Zr   0.87298   0.42403   0.02168   1.000
    Zr33    Zr   0.77379   0.35998   0.96000   1.000
    Zr34    Zr   0.29662   0.64654   0.45611   1.000
    Zr35    Zr   0.27277   0.56653   0.36344   1.000
    Zr36    Zr   0.37311   0.07549   0.98063   1.000
    Zr37    Zr   0.27347   0.14018   0.03110   1.000
    Zr38    Zr   0.79682   0.85321   0.54331   1.000
    Zr39    Zr   0.76995   0.93339   0.63490   1.000
    Zr40    Zr   0.12703   0.57596   0.97829   1.000
    Zr41    Zr   0.22622   0.64001   0.03098   1.000
    Zr42    Zr   0.70339   0.35345   0.54386   1.000
    Zr43    Zr   0.72726   0.43346   0.63652   1.000
    Zr44    Zr   0.62690   0.92450   0.01935   1.000
    Zr45    Zr   0.72654   0.85981   0.96887   1.000
    Zr46    Zr   0.20319   0.14678   0.45666   1.000
    Zr47    Zr   0.23006   0.06660   0.36507   1.000
    Zr48    Zr   0.62703   0.57610   0.52177   1.000
    Zr49    Zr   0.72618   0.64003   0.46907   1.000
    Zr50    Zr   0.20339   0.35344   0.95606   1.000
    Zr51    Zr   0.22720   0.43333   0.86342   1.000
    Zr52    Zr   0.12719   0.92374   0.47840   1.000
    Zr53    Zr   0.22628   0.86000   0.53097   1.000
    Zr54    Zr   0.70323   0.14675   0.04323   1.000
    Zr55    Zr   0.73004   0.06658   0.13476   1.000
    O56     O    0.19145   0.63781   0.02009   1.000
    O57     O    0.14186   0.60578   0.99374   1.000
    O58     O    0.30839   0.13787   0.02074   1.000
    O59     O    0.35822   0.10553   0.99551   1.000
    O60     O    0.67709   0.96539   0.02034   1.000
    O61     O    0.64179   0.89446   0.00446   1.000
    O62     O    0.71525   0.07652   0.03228   1.000
    O63     O    0.72866   0.03643   0.07805   1.000
    O64     O    0.82343   0.46542   0.02185   1.000
    O65     O    0.85815   0.39421   0.00620   1.000
    O66     O    0.78525   0.57669   0.03297   1.000
    O67     O    0.77335   0.53674   0.07929   1.000
    O68     O    0.71121   0.14056   0.07633   1.000
    O69     O    0.78933   0.64046   0.07721   1.000
    O70     O    0.72462   0.10047   0.12210   1.000
    O71     O    0.77743   0.60052   0.12353   1.000
    O72     O    0.27740   0.60040   0.37622   1.000
    O73     O    0.27334   0.53661   0.42061   1.000
    O74     O    0.22460   0.10049   0.37776   1.000
    O75     O    0.22861   0.03636   0.42162   1.000
    O76     O    0.28932   0.64041   0.42255   1.000
    O77     O    0.21116   0.14058   0.42355   1.000
    O78     O    0.28527   0.57662   0.46695   1.000
    O79     O    0.21518   0.07645   0.46742   1.000
    O80     O    0.80854   0.13789   0.47986   1.000
    O81     O    0.69143   0.63786   0.47996   1.000
    O82     O    0.32345   0.46529   0.47799   1.000
    O83     O    0.17718   0.96493   0.47829   1.000
    O84     O    0.35816   0.39410   0.49366   1.000
    O85     O    0.14194   0.89398   0.49387   1.000
    O86     O    0.85808   0.10603   0.50614   1.000
    O87     O    0.64185   0.60590   0.50631   1.000
    O88     O    0.30858   0.36213   0.52000   1.000
    O89     O    0.19149   0.86211   0.52016   1.000
    O90     O    0.82284   0.03507   0.52170   1.000
    O91     O    0.67656   0.53470   0.52193   1.000
    O92     O    0.78483   0.92354   0.53256   1.000
    O93     O    0.77140   0.96363   0.57835   1.000
    O94     O    0.71474   0.42338   0.53298   1.000
    O95     O    0.72668   0.46338   0.57931   1.000
    O96     O    0.78884   0.85941   0.57641   1.000
    O97     O    0.71070   0.35958   0.57716   1.000
    O98     O    0.77540   0.89950   0.62221   1.000
    O99     O    0.72263   0.39959   0.62349   1.000
    O100    O    0.22258   0.39948   0.87643   1.000
    O101    O    0.22666   0.46325   0.92068   1.000
    O102    O    0.27539   0.89952   0.87787   1.000
    O103    O    0.27135   0.96356   0.92192   1.000
    O104    O    0.21068   0.35953   0.92275   1.000
    O105    O    0.28880   0.85943   0.92363   1.000
    O106    O    0.21476   0.42331   0.96700   1.000
    O107    O    0.28476   0.92347   0.96769   1.000
    O108    O    0.80856   0.36218   0.97536   1.000
    O109    O    0.69161   0.86212   0.97922   1.000
    O110    O    0.17658   0.53457   0.97811   1.000
    O111    O    0.32292   0.03459   0.97963   1.000
    N112    N    0.00509   0.15146   0.95289   1.000
    O113    O    0.93745   0.24104   0.96930   1.000
    O114    O    0.10713   0.08177   0.95929   1.000
    N115    N    0.00554   0.34898   0.45258   1.000
    O116    O    0.93771   0.25928   0.46908   1.000
    O117    O    0.10786   0.41871   0.45876   1.000
    N118    N    0.74709   0.34546   0.26602   1.000
    O119    O    0.73527   0.25660   0.20042   1.000
    O120    O    0.74134   0.41045   0.36451   1.000
    N121    N    0.25259   0.84550   0.23414   1.000
    O122    O    0.25788   0.91067   0.13590   1.000
    O123    O    0.26507   0.75663   0.29914   1.000
    N124    N    0.50509   0.15145   0.54701   1.000
    O125    O    0.43745   0.24100   0.53056   1.000
    O126    O    0.60716   0.08182   0.54083   1.000
    N127    N    0.99448   0.65102   0.54738   1.000
    O128    O    0.89215   0.58129   0.54117   1.000
    O129    O    0.06231   0.74072   0.53091   1.000
    N130    N    0.75282   0.84574   0.26603   1.000
    O131    O    0.76520   0.75682   0.20082   1.000
    O132    O    0.75813   0.91090   0.36438   1.000
    N133    N    0.24716   0.34534   0.23397   1.000
    O134    O    0.24141   0.41032   0.13552   1.000
    O135    O    0.23528   0.25654   0.29954   1.000
    N136    N    0.49490   0.84854   0.45293   1.000
    O137    O    0.56255   0.75900   0.46940   1.000
    O138    O    0.39283   0.91818   0.45913   1.000
    N139    N    0.24719   0.15404   0.73391   1.000
    O140    O    0.24188   0.08899   0.63558   1.000
    O141    O    0.23481   0.24307   0.79912   1.000
    N142    N    0.49448   0.65091   0.95246   1.000
    O143    O    0.56231   0.74074   0.96857   1.000
    O144    O    0.39216   0.58115   0.95877   1.000
    N145    N    0.25290   0.65452   0.73393   1.000
    O146    O    0.25866   0.58954   0.63542   1.000
    O147    O    0.26474   0.74338   0.79954   1.000
    N148    N    0.75285   0.65464   0.76594   1.000
    O149    O    0.76473   0.74344   0.70040   1.000
    O150    O    0.75860   0.58966   0.86442   1.000
    N151    N    0.50553   0.34908   0.04751   1.000
    O152    O    0.43769   0.25925   0.03140   1.000
    O153    O    0.60785   0.41884   0.04120   1.000
    N154    N    0.74743   0.15429   0.76582   1.000
    O155    O    0.74214   0.08922   0.86407   1.000
    O156    O    0.73496   0.24326   0.70070   1.000
    N157    N    0.99492   0.84853   0.04703   1.000
    O158    O    0.89288   0.91822   0.04066   1.000
    O159    O    0.06256   0.75894   0.03064   1.000
loop_
    _geom_bond_atom_site_label_1
    _geom_bond_atom_site_label_2
    _geom_bond_distance
    _geom_bond_site_symmetry_2
    _ccdc_geom_bond_type
    Zr16   O56       0.63250      .   S
    Zr41   O56       0.63250      .   S
    Zr16   O57       0.64418  1_554   S
    Zr40   O57       0.64418      .   S
    Zr14   O58       0.63244      .   S
    Zr37   O58       0.63244      .   S
    Zr14   O59       0.64413  1_554   S
    Zr36   O59       0.64413      .   S
    Zr44   O60       1.11790      .   S
    Zr4    O60       1.11790  1_545   S
    Zr44   O61       0.64417      .   S
    Zr18   O61       0.64417  1_556   S
    Zr4    O62       1.25593      .   S
    Zr54   O62       1.25593      .   S
    Zr4    O63       1.17188      .   S
    Zr55   O63       1.17188      .   S
    Zr32   O64       1.11755      .   S
    Zr3    O64       1.11755      .   S
    Zr32   O65       0.64434      .   S
    Zr12   O65       0.64434  1_556   S
    Zr3    O66       1.24694      .   S
    Zr26   O66       1.24694      .   S
    Zr3    O67       1.17909      .   S
    Zr27   O67       1.17909      .   S
    Zr54   O68       0.63637      .   S
    Zr23   O68       0.63637      .   S
    Zr26   O69       0.63714      .   S
    Zr9    O69       0.63714      .   S
    Zr23   O70       0.64147      .   S
    Zr55   O70       0.64147      .   S
    Zr9    O71       0.64105      .   S
    Zr27   O71       0.64105      .   S
    Zr35   O72       0.63938      .   S
    Zr13   O72       0.63938      .   S
    Zr35   O73       1.17830      .   S
    Zr1    O73       1.17830      .   S
    Zr47   O74       0.64149      .   S
    Zr19   O74       0.64149      .   S
    Zr47   O75       1.17066      .   S
    Zr6    O75       1.17066      .   S
    Zr13   O76       0.64152      .   S
    Zr34   O76       0.64152      .   S
    Zr19   O77       0.63631      .   S
    Zr46   O77       0.63631      .   S
    Zr34   O78       1.24778      .   S
    Zr1    O78       1.24778      .   S
    Zr46   O79       1.25704      .   S
    Zr6    O79       1.25704      .   S
    Zr29   O80       0.63253      .   S
    Zr10   O80       0.63253      .   S
    Zr49   O81       0.63236      .   S
    Zr20   O81       0.63236      .   S
    Zr1    O82       1.11742      .   S
    Zr24   O82       1.11742      .   S
    Zr6    O83       1.11849  1_545   S
    Zr52   O83       1.11849      .   S
    Zr24   O84       0.64424      .   S
    Zr8    O84       0.64424      .   S
    Zr52   O85       0.64423      .   S
    Zr22   O85       0.64423      .   S
    Zr10   O86       0.64415      .   S
    Zr28   O86       0.64415      .   S
    Zr20   O87       0.64420      .   S
    Zr48   O87       0.64420      .   S
    Zr8    O88       0.63233      .   S
    Zr25   O88       0.63233      .   S
    Zr22   O89       0.63251      .   S
    Zr53   O89       0.63251      .   S
    Zr28   O90       1.11853      .   S
    Zr0    O90       1.11853  1_565   S
    Zr48   O91       1.11743      .   S
    Zr7    O91       1.11743      .   S
    Zr0    O92       1.25715      .   S
    Zr38   O92       1.25715      .   S
    Zr0    O93       1.17064      .   S
    Zr39   O93       1.17064      .   S
    Zr7    O94       1.24793      .   S
    Zr42   O94       1.24793      .   S
    Zr7    O95       1.17889      .   S
    Zr43   O95       1.17889      .   S
    Zr38   O96       0.63632      .   S
    Zr15   O96       0.63632      .   S
    Zr42   O97       0.63709      .   S
    Zr17   O97       0.63709      .   S
    Zr15   O98       0.64148      .   S
    Zr39   O98       0.64148      .   S
    Zr17   O99       0.64107      .   S
    Zr43   O99       0.64107      .   S
    Zr51   O100      0.64104      .   S
    Zr21   O100      0.64104      .   S
    Zr51   O101      1.17907      .   S
    Zr5    O101      1.17907      .   S
    Zr31   O102      0.64148      .   S
    Zr11   O102      0.64148      .   S
    Zr31   O103      1.17187      .   S
    Zr2    O103      1.17187      .   S
    Zr21   O104      0.63713      .   S
    Zr50   O104      0.63713      .   S
    Zr11   O105      0.63639      .   S
    Zr30   O105      0.63639      .   S
    Zr50   O106      1.24689      .   S
    Zr5    O106      1.24689      .   S
    Zr30   O107      1.25593      .   S
    Zr2    O107      1.25593      .   S
    Zr33   O108      0.66345      .   S
    Zr12   O108      0.66345      .   S
    Zr45   O109      0.63245      .   S
    Zr18   O109      0.63245      .   S
    Zr5    O110      1.11752      .   S
    Zr40   O110      1.11752      .   S
    Zr2    O111      1.11789  1_565   S
    Zr36   O111      1.11789      .   S
    N112   O113      1.97097  1_455   S
    Zr12   O113      2.72059      .   S
    N112   O114      2.13998      .   S
    Zr2    O114      3.25944  1_565   S
    N115   O116      1.97056  1_455   S
    Zr10   O116      2.71995      .   S
    N115   O117      2.13931      .   S
    Zr1    O117      3.25802      .   S
    N118   O119      1.97400      .   S
    Zr23   O119      2.72346      .   S
    N118   O120      2.14457      .   S
    Zr7    O120      3.25963      .   S
    N121   O122      2.14313      .   S
    Zr2    O122      3.25644  1_556   S
    N121   O123      1.97047      .   S
    Zr13   O123      2.71685      .   S
    N124   O125      1.97078      .   S
    Zr8    O125      2.72033      .   S
    N124   O126      2.13969      .   S
    Zr0    O126      3.25885  1_565   S
    N127   O128      2.13940      .   S
    Zr7    O128      3.25825      .   S
    N127   O129      1.97053  1_655   S
    Zr22   O129      2.71992      .   S
    N130   O131      1.97220      .   S
    Zr9    O131      2.72114      .   S
    N130   O132      2.14331      .   S
    Zr0    O132      3.25649      .   S
    N133   O134      2.14505      .   S
    Zr5    O134      3.26127  1_556   S
    N133   O135      1.97418      .   S
    Zr19   O135      2.72368      .   S
    N136   O137      1.97084      .   S
    Zr20   O137      2.72041      .   S
    N136   O138      2.13969      .   S
    Zr6    O138      3.25880  1_545   S
    N139   O140      2.14191      .   S
    Zr6    O140      3.25524      .   S
    N139   O141      1.97372      .   S
    Zr21   O141      2.72299      .   S
    N142   O143      1.97084      .   S
    Zr18   O143      2.72039      .   S
    N142   O144      2.13969      .   S
    Zr5    O144      3.25849      .   S
    N145   O146      2.14475      .   S
    Zr1    O146      3.26038      .   S
    N145   O147      1.97410      .   S
    Zr11   O147      2.72361      .   S
    N148   O149      1.97396      .   S
    Zr15   O149      2.72337      .   S
    N148   O150      2.14544      .   S
    Zr3    O150      3.26165  1_554   S
    N151   O152      1.97084      .   S
    Zr14   O152      2.72037      .   S
    N151   O153      2.13970      .   S
    Zr3    O153      3.25853      .   S
    N154   O155      2.14230      .   S
    Zr4    O155      3.25574  1_554   S
    N154   O156      1.97322      .   S
    Zr17   O156      2.72239      .   S
    N157   O158      2.13995      .   S
    Zr4    O158      3.25937  1_545   S
    N157   O159      1.97092  1_655   S
    Zr16   O159      2.72059      .   S
