# CIF file generated by openbabel 2.4.90, see http://openbabel.sf.net
data_I
_chemical_name_common ''
_cell_length_a 17.215
_cell_length_b 17.395
_cell_length_c 18.482
_cell_angle_alpha 90.039
_cell_angle_beta 90.019
_cell_angle_gamma 90.14
_space_group_name_H-M_alt 'P 1'
_space_group_name_Hall 'P 1'
loop_
    _symmetry_equiv_pos_as_xyz
    x,y,z
loop_
    _atom_site_label
    _atom_site_type_symbol
    _atom_site_fract_x
    _atom_site_fract_y
    _atom_site_fract_z
    _atom_site_occupancy
    N0      N    0.00509   0.15146   0.95289   1.000
    N1      N    0.00554   0.34898   0.45258   1.000
    N2      N    0.74709   0.34546   0.26602   1.000
    N3      N    0.25259   0.84550   0.23414   1.000
    N4      N    0.50509   0.15145   0.54701   1.000
    N5      N    0.99448   0.65102   0.54738   1.000
    N6      N    0.75282   0.84574   0.26603   1.000
    N7      N    0.24716   0.34534   0.23397   1.000
    N8      N    0.49490   0.84854   0.45293   1.000
    N9      N    0.24719   0.15404   0.73391   1.000
    N10     N    0.49448   0.65091   0.95246   1.000
    N11     N    0.25290   0.65452   0.73393   1.000
    N12     N    0.75285   0.65464   0.76594   1.000
    N13     N    0.50553   0.34908   0.04751   1.000
    N14     N    0.74743   0.15429   0.76582   1.000
    N15     N    0.99492   0.84853   0.04703   1.000
    Zr16    Zr   0.19780   0.49959   0.95791   1.000
    O17     O    0.21631   0.37133   0.87851   1.000
    O18     O    0.21961   0.45496   0.04671   1.000
    O19     O    0.29498   0.54037   0.95834   1.000
    O20     O    0.13018   0.62927   0.99427   1.000
    Zr21    Zr   0.69780   0.49968   0.54209   1.000
    O22     O    0.63018   0.62934   0.50574   1.000
    O23     O    0.71638   0.37147   0.62140   1.000
    O24     O    0.79498   0.54048   0.54163   1.000
    O25     O    0.71957   0.45507   0.45330   1.000
    Zr26    Zr   0.80148   0.99973   0.54155   1.000
    O27     O    0.86959   0.12951   0.50532   1.000
    O28     O    0.78310   0.87159   0.62098   1.000
    O29     O    0.70432   0.04078   0.54119   1.000
    O30     O    0.77981   0.95532   0.45296   1.000
    Zr31    Zr   0.80221   0.50040   0.04077   1.000
    O32     O    0.86983   0.37072   0.00504   1.000
    O33     O    0.78370   0.62861   0.12080   1.000
    O34     O    0.78040   0.54503   0.95260   1.000
    O35     O    0.70503   0.45962   0.04099   1.000
    Zr36    Zr   0.30146   0.99960   0.95903   1.000
    O37     O    0.28310   0.87149   0.87929   1.000
    O38     O    0.20429   0.04069   0.95916   1.000
    O39     O    0.27967   0.95513   0.04746   1.000
    O40     O    0.36958   0.12943   0.99522   1.000
    Zr41    Zr   0.30221   0.50031   0.45779   1.000
    O42     O    0.36983   0.37066   0.49418   1.000
    O43     O    0.28364   0.62847   0.37847   1.000
    O44     O    0.20504   0.45951   0.45828   1.000
    O45     O    0.28043   0.54493   0.54661   1.000
    Zr46    Zr   0.69855   0.00039   0.04094   1.000
    O47     O    0.72034   0.04480   0.95250   1.000
    O48     O    0.79572   0.95930   0.04080   1.000
    O49     O    0.63043   0.87056   0.00475   1.000
    O50     O    0.71691   0.12850   0.12068   1.000
    Zr51    Zr   0.19853   0.00026   0.45844   1.000
    O52     O    0.13042   0.87049   0.49468   1.000
    O53     O    0.21690   0.12840   0.37899   1.000
    O54     O    0.29568   0.95922   0.45878   1.000
    O55     O    0.22021   0.04463   0.54701   1.000
loop_
    _geom_bond_atom_site_label_1
    _geom_bond_atom_site_label_2
    _geom_bond_distance
    _geom_bond_site_symmetry_2
    _ccdc_geom_bond_type
    Zr16   O17       2.68919      .   S
    N9     O17       4.65928      .   S
    Zr16   O18       1.85488  1_556   S
    N7     O18       3.98128      .   S
    Zr16   O19       1.81554      .   S
    N10    O19       3.93340      .   S
    Zr16   O20       2.62800      .   S
    N15    O20       4.57817  1_654   S
    Zr21   O22       2.62828      .   S
    N8     O22       4.57841      .   S
    Zr21   O23       2.68924      .   S
    N14    O23       4.65885      .   S
    Zr21   O24       1.81562      .   S
    N5     O24       3.93332      .   S
    Zr21   O25       1.85355      .   S
    N2     O25       3.97952      .   S
    Zr26   O27       2.62846  1_565   S
    N1     O27       4.57870  1_455   S
    Zr26   O28       2.68798      .   S
    N12    O28       4.65799      .   S
    Zr26   O29       1.82021  1_565   S
    N4     O29       3.93873      .   S
    Zr26   O30       1.84751      .   S
    N6     O30       3.97134      .   S
    Zr31   O32       2.62509      .   S
    N0     O32       4.57581  1_456   S
    Zr31   O33       2.69478      .   S
    N6     O33       4.66364      .   S
    Zr31   O34       1.84452  1_554   S
    N12    O34       3.97150      .   S
    Zr31   O35       1.81557      .   S
    N13    O35       3.93381      .   S
    Zr36   O37       2.68885      .   S
    N11    O37       4.65915      .   S
    Zr36   O38       1.82059  1_565   S
    N0     O38       3.93939      .   S
    Zr36   O39       1.84688  1_556   S
    N3     O39       3.97038      .   S
    Zr36   O40       2.62808  1_565   S
    N13    O40       4.57828  1_554   S
    Zr41   O42       2.62839      .   S
    N4     O42       4.57842      .   S
    Zr41   O43       2.68871      .   S
    N3     O43       4.65563      .   S
    Zr41   O44       1.81561      .   S
    N1     O44       3.93321      .   S
    Zr41   O45       1.85399      .   S
    N11    O45       3.98011      .   S
    Zr46   O47       1.84657  1_554   S
    N14    O47       3.96928      .   S
    Zr46   O48       1.82059  1_545   S
    N15    O48       3.93936      .   S
    Zr46   O49       2.62810  1_545   S
    N10    O49       4.57830  1_556   S
    Zr46   O50       2.68877      .   S
    N2     O50       4.65897      .   S
    Zr51   O52       2.62841  1_545   S
    N5     O52       4.57858  1_655   S
    Zr51   O53       2.68813      .   S
    N7     O53       4.65836      .   S
    Zr51   O54       1.82010  1_545   S
    N8     O54       3.93862      .   S
    Zr51   O55       1.84686      .   S
    N9     O55       3.96932      .   S
