# CIF file generated by openbabel 2.4.90, see http://openbabel.sf.net
data_I
_chemical_name_common ''
_cell_length_a 20.649
_cell_length_b 13.709
_cell_length_c 14.912
_cell_angle_alpha 89.983
_cell_angle_beta 90
_cell_angle_gamma 90.33
_space_group_name_H-M_alt 'P 1'
_space_group_name_Hall 'P 1'
loop_
    _symmetry_equiv_pos_as_xyz
    x,y,z
loop_
    _atom_site_label
    _atom_site_type_symbol
    _atom_site_fract_x
    _atom_site_fract_y
    _atom_site_fract_z
    _atom_site_occupancy
    Al0     Al   0.61950   0.65958   0.89408   1.000
    Al1     Al   0.11224   0.38588   0.09608   1.000
    Al2     Al   0.61094   0.38488   0.09596   1.000
    Al3     Al   0.25495   0.72005   0.10865   1.000
    Al4     Al   0.75479   0.71983   0.10852   1.000
    Al5     Al   0.00417   0.39040   0.75796   1.000
    Al6     Al   0.50365   0.38969   0.75860   1.000
    Al7     Al   0.13173   0.84028   0.39463   1.000
    Al8     Al   0.63151   0.84047   0.39398   1.000
    Al9     Al   0.13977   0.11511   0.59590   1.000
    Al10    Al   0.64012   0.11564   0.59581   1.000
    Al11    Al   0.49642   0.77914   0.60847   1.000
    Al12    Al   0.99641   0.77909   0.60824   1.000
    Al13    Al   0.24673   0.10871   0.25800   1.000
    Al14    Al   0.74680   0.10915   0.25808   1.000
    Al15    Al   0.38245   0.34006   0.10640   1.000
    Al16    Al   0.88154   0.34016   0.10552   1.000
    Al17    Al   0.39022   0.61562   0.90438   1.000
    Al18    Al   0.88971   0.61494   0.90400   1.000
    Al19    Al   0.24625   0.27966   0.89214   1.000
    Al20    Al   0.74621   0.27871   0.89183   1.000
    Al21    Al   0.49689   0.60935   0.24206   1.000
    Al22    Al   0.99684   0.60891   0.24194   1.000
    Al23    Al   0.36939   0.16003   0.60522   1.000
    Al24    Al   0.86949   0.15969   0.60586   1.000
    Al25    Al   0.36209   0.88538   0.40406   1.000
    Al26    Al   0.86204   0.88563   0.40400   1.000
    Al27    Al   0.00493   0.22004   0.39141   1.000
    Al28    Al   0.50490   0.22011   0.39159   1.000
    Al29    Al   0.25422   0.89110   0.74239   1.000
    Al30    Al   0.75379   0.88974   0.74148   1.000
    P31     P    0.11564   0.61763   0.10713   1.000
    Al32    Al   0.11948   0.66002   0.89414   1.000
    P33     P    0.61520   0.61722   0.10700   1.000
    P34     P    0.12112   0.40958   0.88865   1.000
    P35     P    0.62111   0.40874   0.88868   1.000
    P36     P    0.26091   0.73560   0.89947   1.000
    P37     P    0.76084   0.73568   0.89937   1.000
    P38     P    0.00391   0.62479   0.76441   1.000
    P39     P    0.50351   0.62482   0.76504   1.000
    P40     P    0.13544   0.88299   0.60795   1.000
    P41     P    0.63595   0.88230   0.60740   1.000
    P42     P    0.12986   0.09049   0.38861   1.000
    P43     P    0.62983   0.09063   0.38850   1.000
    P44     P    0.49083   0.76444   0.39924   1.000
    P45     P    0.99079   0.76450   0.39902   1.000
    P46     P    0.24782   0.87439   0.26480   1.000
    P47     P    0.74792   0.87482   0.26445   1.000
    P48     P    0.38651   0.38238   0.89376   1.000
    P49     P    0.88529   0.38281   0.89228   1.000
    P50     P    0.37987   0.59055   0.11168   1.000
    P51     P    0.87988   0.59044   0.11146   1.000
    P52     P    0.24065   0.26414   0.10077   1.000
    P53     P    0.74015   0.26481   0.10106   1.000
    P54     P    0.49747   0.37500   0.23600   1.000
    P55     P    0.99789   0.37447   0.23519   1.000
    P56     P    0.36573   0.11685   0.39247   1.000
    P57     P    0.86564   0.11738   0.39287   1.000
    P58     P    0.37108   0.90935   0.61149   1.000
    P59     P    0.87118   0.90912   0.61137   1.000
    P60     P    0.01086   0.23561   0.60059   1.000
    P61     P    0.51082   0.23570   0.60065   1.000
    P62     P    0.25415   0.12556   0.73532   1.000
    P63     P    0.75349   0.12481   0.73503   1.000
    O64     O    0.07827   0.36678   0.81357   1.000
    O65     O    0.57828   0.36685   0.81315   1.000
    O66     O    0.09496   0.37418   0.98044   1.000
    O67     O    0.59484   0.37220   0.98007   1.000
    O68     O    0.11664   0.52113   0.88691   1.000
    O69     O    0.61675   0.52037   0.88770   1.000
    O70     O    0.20619   0.66156   0.88298   1.000
    O71     O    0.70625   0.66138   0.88289   1.000
    O72     O    0.25280   0.82924   0.84390   1.000
    O73     O    0.75268   0.82932   0.84378   1.000
    O74     O    0.26409   0.76564   0.99945   1.000
    O75     O    0.76392   0.76565   0.99937   1.000
    O76     O    0.32552   0.68770   0.87138   1.000
    O77     O    0.82560   0.68822   0.87128   1.000
    O78     O    0.46099   0.64855   0.84729   1.000
    O79     O    0.96101   0.64507   0.84700   1.000
    O80     O    0.49730   0.51599   0.74109   1.000
    O81     O    0.99959   0.51645   0.73800   1.000
    O82     O    0.48065   0.68394   0.68379   1.000
    O83     O    0.98014   0.68490   0.68432   1.000
    O84     O    0.07450   0.65268   0.78766   1.000
    O85     O    0.57454   0.65070   0.78772   1.000
    O86     O    0.13305   0.50867   0.11670   1.000
    O87     O    0.63115   0.50784   0.11661   1.000
    O88     O    0.09230   0.63624   0.01017   1.000
    O89     O    0.59211   0.63634   0.01006   1.000
    O90     O    0.06121   0.64541   0.17208   1.000
    O91     O    0.56107   0.64608   0.17203   1.000
    O92     O    0.17578   0.67893   0.12875   1.000
    O93     O    0.67599   0.67707   0.12860   1.000
    O94     O    0.19132   0.37603   0.87519   1.000
    O95     O    0.69132   0.37523   0.87496   1.000
    O96     O    0.17228   0.13307   0.31284   1.000
    O97     O    0.67222   0.13309   0.31273   1.000
    O98     O    0.15569   0.12781   0.47997   1.000
    O99     O    0.65568   0.12822   0.47980   1.000
    O100    O    0.13569   0.97907   0.38769   1.000
    O101    O    0.63567   0.97922   0.38760   1.000
    O102    O    0.04490   0.83973   0.38262   1.000
    O103    O    0.54461   0.84020   0.38268   1.000
    O104    O    0.49977   0.67118   0.34351   1.000
    O105    O    0.99957   0.67118   0.34327   1.000
    O106    O    0.48846   0.73395   0.49910   1.000
    O107    O    0.98817   0.73400   0.49891   1.000
    O108    O    0.42539   0.81030   0.37180   1.000
    O109    O    0.92563   0.81117   0.37152   1.000
    O110    O    0.29094   0.85499   0.34737   1.000
    O111    O    0.79095   0.85501   0.34702   1.000
    O112    O    0.25212   0.98273   0.23780   1.000
    O113    O    0.75247   0.98316   0.23769   1.000
    O114    O    0.27182   0.81350   0.18531   1.000
    O115    O    0.77155   0.81371   0.18487   1.000
    O116    O    0.17744   0.84614   0.28876   1.000
    O117    O    0.67733   0.84735   0.28812   1.000
    O118    O    0.11918   0.99230   0.61689   1.000
    O119    O    0.62182   0.99221   0.61708   1.000
    O120    O    0.15869   0.86422   0.51093   1.000
    O121    O    0.65849   0.86277   0.51030   1.000
    O122    O    0.18938   0.85447   0.67336   1.000
    O123    O    0.68954   0.85095   0.67239   1.000
    O124    O    0.07484   0.82270   0.62912   1.000
    O125    O    0.57435   0.82463   0.62912   1.000
    O126    O    0.05922   0.12231   0.37517   1.000
    O127    O    0.55917   0.12244   0.37513   1.000
    O128    O    0.42223   0.63312   0.18748   1.000
    O129    O    0.92230   0.63307   0.18716   1.000
    O130    O    0.40577   0.62804   0.02041   1.000
    O131    O    0.90573   0.62743   0.01998   1.000
    O132    O    0.38569   0.47906   0.11267   1.000
    O133    O    0.88557   0.47897   0.11259   1.000
    O134    O    0.29554   0.33819   0.11643   1.000
    O135    O    0.79463   0.33954   0.11710   1.000
    O136    O    0.24927   0.17081   0.15650   1.000
    O137    O    0.74896   0.17144   0.15679   1.000
    O138    O    0.23664   0.23359   0.00100   1.000
    O139    O    0.73681   0.23424   0.00124   1.000
    O140    O    0.17605   0.31201   0.12897   1.000
    O141    O    0.67520   0.31188   0.12896   1.000
    O142    O    0.04115   0.35500   0.15280   1.000
    O143    O    0.53943   0.35462   0.15245   1.000
    O144    O    0.00217   0.48283   0.26204   1.000
    O145    O    0.50264   0.48335   0.26234   1.000
    O146    O    0.02177   0.31365   0.31487   1.000
    O147    O    0.52182   0.31396   0.31524   1.000
    O148    O    0.42647   0.34812   0.21391   1.000
    O149    O    0.92753   0.34611   0.21119   1.000
    O150    O    0.37199   0.49210   0.88327   1.000
    O151    O    0.86907   0.49212   0.88298   1.000
    O152    O    0.41051   0.36380   0.99047   1.000
    O153    O    0.90858   0.36446   0.98933   1.000
    O154    O    0.43931   0.35070   0.82762   1.000
    O155    O    0.93930   0.35410   0.82707   1.000
    O156    O    0.32470   0.32433   0.87441   1.000
    O157    O    0.82473   0.32231   0.87121   1.000
    O158    O    0.30918   0.62224   0.12494   1.000
    O159    O    0.80928   0.62245   0.12486   1.000
    O160    O    0.32821   0.86685   0.68668   1.000
    O161    O    0.82837   0.86683   0.68673   1.000
    O162    O    0.34479   0.87422   0.51971   1.000
    O163    O    0.84492   0.87356   0.51969   1.000
    O164    O    0.36683   0.02092   0.61317   1.000
    O165    O    0.86679   0.02068   0.61282   1.000
    O166    O    0.45604   0.16173   0.61708   1.000
    O167    O    0.95624   0.16134   0.61705   1.000
    O168    O    0.00265   0.32916   0.65619   1.000
    O169    O    0.50272   0.32930   0.65629   1.000
    O170    O    0.01402   0.26564   0.50061   1.000
    O171    O    0.51406   0.26581   0.50070   1.000
    O172    O    0.07559   0.18814   0.62877   1.000
    O173    O    0.57539   0.18769   0.62875   1.000
    O174    O    0.21104   0.14532   0.65274   1.000
    O175    O    0.71095   0.14850   0.65277   1.000
    O176    O    0.24979   0.01721   0.76204   1.000
    O177    O    0.74743   0.01597   0.75899   1.000
    O178    O    0.23052   0.18627   0.81511   1.000
    O179    O    0.73053   0.18374   0.81629   1.000
    O180    O    0.32458   0.15372   0.71157   1.000
    O181    O    0.82450   0.15089   0.71232   1.000
    O182    O    0.38329   0.00798   0.38278   1.000
    O183    O    0.88297   0.00837   0.38329   1.000
    O184    O    0.34206   0.13405   0.48956   1.000
    O185    O    0.84230   0.13588   0.48984   1.000
    O186    O    0.31133   0.14499   0.32765   1.000
    O187    O    0.81123   0.14536   0.32790   1.000
    O188    O    0.42576   0.17863   0.37150   1.000
    O189    O    0.92581   0.17866   0.37130   1.000
    O190    O    0.44119   0.87527   0.62485   1.000
    O191    O    0.94138   0.87544   0.62479   1.000
loop_
    _geom_bond_atom_site_label_1
    _geom_bond_atom_site_label_2
    _geom_bond_distance
    _geom_bond_site_symmetry_2
    _ccdc_geom_bond_type
    O138   P52       1.54780      .   S
    O138   Al19      1.75255  1_554   S
    O139   P53       1.54793      .   S
    O139   Al20      1.75190  1_554   S
    O89    P33       1.54500      .   S
    O89    Al0       1.84669  1_554   S
    O88    P31       1.54570      .   S
    O88    Al32      1.84731  1_554   S
    O131   P51       1.54906      .   S
    O131   Al18      1.76905  1_554   S
    O130   P50       1.54887      .   S
    O130   Al17      1.76788  1_554   S
    Al2    O87       1.76135      .   S
    Al2    O141      1.73760      .   S
    Al2    O143      1.74787      .   S
    Al2    O67       1.76828  1_554   S
    Al1    O86       1.76205      .   S
    Al1    O140      1.73694      .   S
    Al1    O142      1.74415      .   S
    Al1    O66       1.76812  1_554   S
    P52    O134      1.53514      .   S
    P52    O140      1.54832      .   S
    P52    O136      1.53670      .   S
    P53    O135      1.53593      .   S
    P53    O141      1.54873      .   S
    P53    O137      1.53756      .   S
    Al16   O133      1.90722      .   S
    Al16   O135      1.80280      .   S
    Al16   O149      1.84143      .   S
    Al16   O153      1.84994  1_554   S
    Al15   O132      1.90877      .   S
    Al15   O134      1.80090      .   S
    Al15   O148      1.84598      .   S
    Al15   O152      1.85142  1_554   S
    P33    O87       1.54364      .   S
    P33    O93       1.53009      .   S
    P33    O91       1.53354      .   S
    P31    O86       1.54498      .   S
    P31    O92       1.52989      .   S
    P31    O90       1.53339      .   S
    Al4    O159      1.76771      .   S
    Al4    O93       1.75196      .   S
    Al4    O115      1.75166      .   S
    Al4    O75       1.75425  1_554   S
    Al3    O158      1.76870      .   S
    Al3    O92       1.75191      .   S
    Al3    O114      1.75067      .   S
    Al3    O74       1.75383  1_554   S
    P51    O133      1.53347      .   S
    P51    O159      1.53772      .   S
    P51    O129      1.54202      .   S
    P50    O132      1.53386      .   S
    P50    O158      1.53807      .   S
    P50    O128      1.54200      .   S
    O143   P54       1.54405      .   S
    O142   P55       1.54326  1_455   S
    O136   Al13      1.73697      .   S
    O137   Al14      1.73538      .   S
    O91    Al21      1.75854      .   S
    O90    Al22      1.75906  1_455   S
    O115   P47       1.53417      .   S
    O114   P46       1.53390      .   S
    O129   Al22      1.77529      .   S
    O128   Al21      1.77504      .   S
    O149   P55       1.54387      .   S
    O148   P54       1.54506      .   S
    P55    O144      1.54071  1_655   S
    P55    O146      1.53437  1_655   S
    P54    O145      1.53963      .   S
    P54    O147      1.53419      .   S
    O113   Al14      1.75830  1_565   S
    O113   P47       1.54015      .   S
    O112   Al13      1.75743  1_565   S
    O112   P46       1.54072      .   S
    Al22   O144      1.75820  1_655   S
    Al22   O105      1.73643      .   S
    Al21   O145      1.75821      .   S
    Al21   O104      1.73513      .   S
    Al13   O96       1.77474      .   S
    Al13   O186      1.76012      .   S
    Al14   O97       1.77460      .   S
    Al14   O187      1.75877      .   S
    P47    O117      1.54429      .   S
    P47    O111      1.54329      .   S
    P46    O116      1.54365      .   S
    P46    O110      1.54342      .   S
    O117   Al8       1.84254      .   S
    O116   Al7       1.84096      .   S
    O97    P43       1.54135      .   S
    O96    P42       1.54219      .   S
    O146   Al27      1.75051      .   S
    O147   Al28      1.75148      .   S
    O186   P56       1.53298      .   S
    O187   P57       1.53384      .   S
    O105   P45       1.53754      .   S
    O104   P44       1.53718      .   S
    O111   Al26      1.74532      .   S
    O110   Al25      1.74354      .   S
    O189   Al27      1.75223  1_655   S
    O189   P57       1.52990      .   S
    O188   Al28      1.75287      .   S
    O188   P56       1.52951      .   S
    O109   P45       1.54852      .   S
    O109   Al26      1.73683      .   S
    O108   P44       1.54852      .   S
    O108   Al25      1.73643      .   S
    O127   P43       1.53815      .   S
    O127   Al28      1.76813      .   S
    O126   P42       1.53807      .   S
    O126   Al27      1.76862      .   S
    O102   Al7       1.80168      .   S
    O102   P45       1.53577  1_455   S
    O103   Al8       1.80219      .   S
    O103   P44       1.53608      .   S
    O182   P56       1.54469      .   S
    O182   Al25      1.76291  1_545   S
    O183   P57       1.54527      .   S
    O183   Al26      1.76207  1_545   S
    O101   P43       1.53279  1_565   S
    O101   Al8       1.90589      .   S
    O100   P42       1.53295  1_565   S
    O100   Al7       1.90672      .   S
    P43    O99       1.54967      .   S
    P42    O98       1.54906      .   S
    Al27   O170      1.75410      .   S
    Al28   O171      1.75353      .   S
    P56    O184      1.54669      .   S
    P57    O185      1.54573      .   S
    Al8    O121      1.84691      .   S
    Al7    O120      1.85034      .   S
    P45    O107      1.54787      .   S
    P44    O106      1.54726      .   S
    Al26   O163      1.76855      .   S
    Al25   O162      1.76760      .   S
    O99    Al10      1.76775      .   S
    O98    Al9       1.76811      .   S
    O184   Al23      1.84880      .   S
    O185   Al24      1.84754      .   S
    O107   Al12      1.75166      .   S
    O106   Al11      1.75217      .   S
    O170   P60       1.54786      .   S
    O171   P61       1.54779      .   S
    O121   P41       1.54492      .   S
    O120   P40       1.54644      .   S
    O163   P59       1.54865      .   S
    O162   P58       1.54827      .   S
    Al10   O119      1.76039  1_545   S
    Al10   O173      1.73742      .   S
    Al10   O175      1.74824      .   S
    Al9    O118      1.76200  1_545   S
    Al9    O172      1.73622      .   S
    Al9    O174      1.74613      .   S
    P60    O167      1.53468  1_455   S
    P60    O172      1.54794      .   S
    P60    O168      1.53761      .   S
    P61    O166      1.53440      .   S
    P61    O173      1.54801      .   S
    P61    O169      1.53815      .   S
    Al23   O164      1.91122      .   S
    Al23   O166      1.79795      .   S
    Al23   O180      1.83792      .   S
    Al24   O165      1.90907      .   S
    Al24   O167      1.79907      .   S
    Al24   O181      1.84302      .   S
    P41    O119      1.54308      .   S
    P41    O125      1.52848      .   S
    P41    O123      1.53430      .   S
    P40    O118      1.54332      .   S
    P40    O124      1.52863      .   S
    P40    O122      1.53279      .   S
    Al12   O191      1.76476      .   S
    Al12   O124      1.75103  1_655   S
    Al12   O83       1.74969      .   S
    Al11   O190      1.76484      .   S
    Al11   O125      1.74970      .   S
    Al11   O82       1.75072      .   S
    P59    O165      1.53268  1_565   S
    P59    O191      1.53684      .   S
    P59    O161      1.54090      .   S
    P58    O164      1.53272  1_565   S
    P58    O190      1.53670      .   S
    P58    O160      1.54076      .   S
    O174   P62       1.54436      .   S
    O175   P63       1.54429      .   S
    O168   Al5       1.73476      .   S
    O169   Al6       1.73611      .   S
    O123   Al30      1.75965      .   S
    O122   Al29      1.75988      .   S
    O82    P39       1.53343      .   S
    O83    P38       1.53306  1_655   S
    O160   Al29      1.77225      .   S
    O161   Al30      1.77272      .   S
    O180   P62       1.54357      .   S
    O181   P63       1.54473      .   S
    P63    O177      1.53855      .   S
    P63    O179      1.53323      .   S
    P62    O176      1.53997      .   S
    P62    O178      1.53355      .   S
    O81    Al5       1.75639  1_655   S
    O81    P38       1.53887  1_655   S
    O80    Al6       1.75662      .   S
    O80    P39       1.53875      .   S
    Al30   O177      1.75575  1_565   S
    Al30   O73       1.73578      .   S
    Al29   O176      1.75646  1_565   S
    Al29   O72       1.73504      .   S
    Al5    O64       1.77180      .   S
    Al5    O155      1.75947  1_455   S
    Al6    O65       1.77206      .   S
    Al6    O154      1.76113      .   S
    P38    O84       1.54431      .   S
    P38    O79       1.54328  1_455   S
    P39    O85       1.54461      .   S
    P39    O78       1.54422      .   S
    O84    Al32      1.84193      .   S
    O85    Al0       1.84145      .   S
    O65    P35       1.54109      .   S
    O64    P34       1.54113      .   S
    O178   Al19      1.74933      .   S
    O179   Al20      1.75058      .   S
    O155   P49       1.53294      .   S
    O154   P48       1.53481      .   S
    O73    P37       1.53794      .   S
    O72    P36       1.53767      .   S
    O79    Al18      1.74752      .   S
    O78    Al17      1.74824      .   S
    O157   Al20      1.75213      .   S
    O157   P49       1.52910      .   S
    O77    P37       1.54822      .   S
    O77    Al18      1.73633      .   S
    O76    P36       1.54813      .   S
    O76    Al17      1.73729      .   S
    O156   Al19      1.74842      .   S
    O156   P48       1.52789      .   S
    O95    P35       1.53706      .   S
    O95    Al20      1.76513      .   S
    O94    P34       1.53644      .   S
    O94    Al19      1.76433      .   S
    O71    Al0       1.79906      .   S
    O71    P37       1.53477      .   S
    O70    Al32      1.79832      .   S
    O70    P36       1.53439      .   S
    O151   P49       1.54354      .   S
    O151   Al18      1.76260      .   S
    O150   P48       1.54323      .   S
    O150   Al17      1.76107      .   S
    O68    P34       1.53285      .   S
    O68    Al32      1.90770      .   S
    O69    P35       1.53354      .   S
    O69    Al0       1.91135      .   S
    P34    O66       1.54839      .   S
    P35    O67       1.54887      .   S
    P49    O153      1.54603      .   S
    P48    O152      1.54644      .   S
    P37    O75       1.54808      .   S
    P36    O74       1.54814      .   S
