# CIF file generated by openbabel 2.4.90, see http://openbabel.sf.net
data_I
_chemical_name_common ''
_cell_length_a 20.649
_cell_length_b 13.709
_cell_length_c 14.912
_cell_angle_alpha 89.983
_cell_angle_beta 90
_cell_angle_gamma 90.33
_space_group_name_H-M_alt 'P 1'
_space_group_name_Hall 'P 1'
loop_
    _symmetry_equiv_pos_as_xyz
    x,y,z
loop_
    _atom_site_label
    _atom_site_type_symbol
    _atom_site_fract_x
    _atom_site_fract_y
    _atom_site_fract_z
    _atom_site_occupancy
    Al0     Al   0.61950   0.65958   0.89408   1.000
    Al1     Al   0.11224   0.38588   0.09608   1.000
    Al2     Al   0.61094   0.38488   0.09596   1.000
    Al3     Al   0.25495   0.72005   0.10865   1.000
    Al4     Al   0.75479   0.71983   0.10852   1.000
    Al5     Al   0.00417   0.39040   0.75796   1.000
    Al6     Al   0.50365   0.38969   0.75860   1.000
    Al7     Al   0.13173   0.84028   0.39463   1.000
    Al8     Al   0.63151   0.84047   0.39398   1.000
    Al9     Al   0.13977   0.11511   0.59590   1.000
    Al10    Al   0.64012   0.11564   0.59581   1.000
    Al11    Al   0.49642   0.77914   0.60847   1.000
    Al12    Al   0.99641   0.77909   0.60824   1.000
    Al13    Al   0.24673   0.10871   0.25800   1.000
    Al14    Al   0.74680   0.10915   0.25808   1.000
    Al15    Al   0.38245   0.34006   0.10640   1.000
    Al16    Al   0.88154   0.34016   0.10552   1.000
    Al17    Al   0.39022   0.61562   0.90438   1.000
    Al18    Al   0.88971   0.61494   0.90400   1.000
    Al19    Al   0.24625   0.27966   0.89214   1.000
    Al20    Al   0.74621   0.27871   0.89183   1.000
    Al21    Al   0.49689   0.60935   0.24206   1.000
    Al22    Al   0.99684   0.60891   0.24194   1.000
    Al23    Al   0.36939   0.16003   0.60522   1.000
    Al24    Al   0.86949   0.15969   0.60586   1.000
    Al25    Al   0.36209   0.88538   0.40406   1.000
    Al26    Al   0.86204   0.88563   0.40400   1.000
    Al27    Al   0.00493   0.22004   0.39141   1.000
    Al28    Al   0.50490   0.22011   0.39159   1.000
    Al29    Al   0.25422   0.89110   0.74239   1.000
    Al30    Al   0.75379   0.88974   0.74148   1.000
    Al31    Al   0.11948   0.66002   0.89414   1.000
