# CIF file generated by openbabel 2.4.90, see http://openbabel.sf.net
data_I
_chemical_name_common ''
_cell_length_a 23.173
_cell_length_b 23.132
_cell_length_c 22.876
_cell_angle_alpha 89.923
_cell_angle_beta 90.038
_cell_angle_gamma 119.768
_space_group_name_H-M_alt 'P 1'
_space_group_name_Hall 'P 1'
loop_
    _symmetry_equiv_pos_as_xyz
    x,y,z
loop_
    _atom_site_label
    _atom_site_type_symbol
    _atom_site_fract_x
    _atom_site_fract_y
    _atom_site_fract_z
    _atom_site_occupancy
    Cd0     Cd   0.26104   0.88082   0.91684   1.000
    Cd1     Cd   0.76103   0.38083   0.91684   1.000
    Cd2     Cd   0.76103   0.88082   0.91684   1.000
    Cd3     Cd   0.11890   0.23864   0.58320   1.000
    Cd4     Cd   0.11890   0.73863   0.58321   1.000
    Cd5     Cd   0.61889   0.23864   0.58320   1.000
    Cd6     Cd   0.61889   0.73863   0.58321   1.000
    Cd7     Cd   0.11929   0.38063   0.25002   1.000
    Cd8     Cd   0.11929   0.88062   0.25002   1.000
    Cd9     Cd   0.61928   0.38063   0.25002   1.000
    Cd10    Cd   0.61928   0.88062   0.25002   1.000
    Cd11    Cd   0.23876   0.11903   0.41682   1.000
    Cd12    Cd   0.23876   0.61902   0.41682   1.000
    Cd13    Cd   0.73875   0.11903   0.41682   1.000
    Cd14    Cd   0.73875   0.61902   0.41682   1.000
    Cd15    Cd   0.38118   0.26124   0.08330   1.000
    Cd16    Cd   0.38118   0.76123   0.08330   1.000
    Cd17    Cd   0.88117   0.26124   0.08330   1.000
    Cd18    Cd   0.88117   0.76123   0.08330   1.000
    Cd19    Cd   0.38079   0.11952   0.74997   1.000
    Cd20    Cd   0.38079   0.61951   0.74997   1.000
    Cd21    Cd   0.88078   0.11952   0.74997   1.000
    Cd22    Cd   0.88078   0.61951   0.74997   1.000
    B23     B    0.32329   0.32329   0.00020   1.000
    B24     B    0.32328   0.82328   0.00000   1.000
    B25     B    0.82327   0.32329   0.00000   1.000
    B26     B    0.82328   0.82328   0.00020   1.000
    B27     B    0.99973   0.17681   0.66645   1.000
    B28     B    0.99973   0.67680   0.66645   1.000
    B29     B    0.49972   0.17681   0.66640   1.000
    B30     B    0.49972   0.67680   0.66645   1.000
    B31     B    0.17671   0.99970   0.33357   1.000
    Cd32    Cd   0.26104   0.38083   0.91680   1.000
    B33     B    0.17671   0.49970   0.33357   1.000
    B34     B    0.67670   0.99970   0.33357   1.000
    B35     B    0.67670   0.49970   0.33357   1.000
    B36     B    0.17653   0.17649   0.50008   1.000
    B37     B    0.17653   0.67648   0.50008   1.000
    B38     B    0.67652   0.17649   0.50008   1.000
    B39     B    0.67652   0.67648   0.50008   1.000
    B40     B    0.00047   0.32326   0.16635   1.000
    B41     B    0.00047   0.82325   0.16635   1.000
    B42     B    0.50046   0.32326   0.16635   1.000
    B43     B    0.50046   0.82325   0.16635   1.000
    B44     B    0.32312   0.00036   0.83361   1.000
    B45     B    0.32312   0.50035   0.83361   1.000
    B46     B    0.82311   0.00036   0.83361   1.000
    B47     B    0.82311   0.50035   0.83361   1.000
    H48     H    0.42773   0.41196   0.88901   1.000
    H49     H    0.42773   0.91195   0.88900   1.000
    H50     H    0.92772   0.41196   0.88900   1.000
    H51     H    0.92772   0.91195   0.88900   1.000
    H52     H    0.41049   0.33005   0.90890   1.000
    H53     H    0.41049   0.83004   0.90891   1.000
    H54     H    0.91048   0.33005   0.90891   1.000
    H55     H    0.91048   0.83004   0.90891   1.000
    H56     H    0.45194   0.39723   0.95939   1.000
    H57     H    0.45195   0.89722   0.95930   1.000
    H58     H    0.95194   0.39723   0.95938   1.000
    H59     H    0.95194   0.89722   0.95938   1.000
    H60     H    0.16185   0.27087   0.03134   1.000
    H61     H    0.16185   0.77086   0.03134   1.000
    H62     H    0.66184   0.27087   0.03134   1.000
    H63     H    0.66184   0.77086   0.03134   1.000
    H64     H    0.22315   0.31377   0.08657   1.000
    H65     H    0.22315   0.81376   0.08656   1.000
    H66     H    0.72314   0.31377   0.08656   1.000
    H67     H    0.72314   0.81376   0.08656   1.000
    H68     H    0.21263   0.23764   0.05697   1.000
    H69     H    0.21263   0.73763   0.05697   1.000
    H70     H    0.71262   0.23764   0.05697   1.000
    H71     H    0.71262   0.73763   0.05697   1.000
    H72     H    0.48373   0.07196   0.55536   1.000
    H73     H    0.48373   0.57195   0.55536   1.000
    H74     H    0.98372   0.07196   0.55536   1.000
    H75     H    0.98372   0.57195   0.55536   1.000
    H76     H    0.41949   0.08964   0.57560   1.000
    H77     H    0.41949   0.58963   0.57560   1.000
    H78     H    0.91948   0.08964   0.57560   1.000
    H79     H    0.91948   0.58963   0.57560   1.000
    H80     H    0.44531   0.04772   0.62584   1.000
    H81     H    0.44531   0.54771   0.62584   1.000
    H82     H    0.94530   0.04772   0.62584   1.000
    H83     H    0.94530   0.54771   0.62584   1.000
    H84     H    0.10865   0.33834   0.69771   1.000
    H85     H    0.10866   0.83833   0.69771   1.000
    H86     H    0.60864   0.33834   0.69771   1.000
    H87     H    0.60864   0.83833   0.69771   1.000
    H88     H    0.09012   0.27646   0.75269   1.000
    H89     H    0.09012   0.77645   0.75269   1.000
    H90     H    0.59011   0.27646   0.75269   1.000
    H91     H    0.59011   0.77645   0.75269   1.000
    H92     H    0.02503   0.28806   0.72342   1.000
    H93     H    0.02503   0.78805   0.72342   1.000
    H94     H    0.52502   0.28806   0.72342   1.000
    H95     H    0.52502   0.78805   0.72342   1.000
    H96     H    0.08808   0.01667   0.22259   1.000
    H97     H    0.08808   0.51666   0.22259   1.000
    H98     H    0.58807   0.01667   0.22259   1.000
    H99     H    0.58807   0.51666   0.22259   1.000
    H100    H    0.58034   0.66963   0.75733   1.000
    H101    H    0.05482   0.10234   0.70697   1.000
    H102    H    0.05482   0.60233   0.70697   1.000
    H103    H    0.55481   0.10234   0.70697   1.000
    H104    H    0.16976   0.08062   0.24268   1.000
    H105    H    0.16976   0.58062   0.24268   1.000
    H106    H    0.66975   0.08062   0.24268   1.000
    H107    H    0.66975   0.58062   0.24268   1.000
    H108    H    0.10255   0.05516   0.29306   1.000
    H109    H    0.10255   0.55515   0.29306   1.000
    H110    H    0.60254   0.05516   0.29306   1.000
    H111    H    0.60254   0.55515   0.29306   1.000
    H112    H    0.22923   0.39002   0.36442   1.000
    H113    H    0.22923   0.89001   0.36442   1.000
    H114    H    0.72922   0.39002   0.36442   1.000
    H115    H    0.72922   0.89001   0.36442   1.000
    H116    H    0.18625   0.40850   0.41970   1.000
    H117    H    0.18625   0.90849   0.41970   1.000
    H118    H    0.68624   0.40850   0.41970   1.000
    H119    H    0.68624   0.90849   0.41970   1.000
    H120    H    0.26229   0.47374   0.39023   1.000
    H121    H    0.26229   0.97373   0.39023   1.000
    H122    H    0.76228   0.47374   0.39023   1.000
    H123    H    0.76228   0.97373   0.39023   1.000
    H124    H    0.07207   0.08805   0.38894   1.000
    H125    H    0.07208   0.58805   0.38894   1.000
    H126    H    0.57206   0.08805   0.38894   1.000
    H127    H    0.57207   0.58805   0.38895   1.000
    H128    H    0.08945   0.16996   0.40883   1.000
    H129    H    0.08945   0.66995   0.40883   1.000
    H130    H    0.58943   0.16996   0.40880   1.000
    H131    H    0.58944   0.66995   0.40883   1.000
    H132    H    0.27640   0.09020   0.24721   1.000
    H133    H    0.27640   0.59019   0.24721   1.000
    H134    H    0.77638   0.09020   0.24721   1.000
    H135    H    0.77639   0.59019   0.24721   1.000
    H136    H    0.28770   0.02484   0.27650   1.000
    H137    H    0.04780   0.10265   0.45928   1.000
    H138    H    0.04781   0.60264   0.45928   1.000
    H139    H    0.54779   0.10265   0.45920   1.000
    H140    H    0.54780   0.60264   0.45928   1.000
    H141    H    0.33801   0.22899   0.53120   1.000
    H142    H    0.33801   0.72898   0.53120   1.000
    H143    H    0.83800   0.22899   0.53120   1.000
    H144    H    0.83800   0.72898   0.53121   1.000
    H145    H    0.27669   0.18600   0.58644   1.000
    H146    H    0.27669   0.68599   0.58645   1.000
    H147    H    0.77668   0.18600   0.58644   1.000
    H148    H    0.77668   0.68599   0.58645   1.000
    H149    H    0.28718   0.26214   0.55673   1.000
    H150    H    0.28719   0.76213   0.55673   1.000
    H151    H    0.78717   0.26214   0.55673   1.000
    H152    H    0.78717   0.76213   0.55673   1.000
    H153    H    0.01627   0.42817   0.05511   1.000
    H154    H    0.01627   0.92816   0.05511   1.000
    H155    H    0.51626   0.42817   0.05511   1.000
    H156    H    0.51626   0.92816   0.05511   1.000
    H157    H    0.08068   0.41070   0.07535   1.000
    H158    H    0.08068   0.91069   0.07535   1.000
    H159    H    0.58067   0.41070   0.07535   1.000
    H160    H    0.58067   0.91069   0.07535   1.000
    H161    H    0.05464   0.45228   0.12561   1.000
    H162    H    0.05465   0.95227   0.12561   1.000
    H163    H    0.55463   0.45228   0.12561   1.000
    H164    H    0.55464   0.95227   0.12561   1.000
    H165    H    0.39158   0.16168   0.19787   1.000
    H166    H    0.39158   0.66167   0.19787   1.000
    H167    H    0.89157   0.16168   0.19787   1.000
    H168    H    0.89157   0.66167   0.19787   1.000
    H169    H    0.41002   0.22345   0.25278   1.000
    H170    H    0.41002   0.72344   0.25278   1.000
    H171    H    0.91000   0.22345   0.25278   1.000
    H172    H    0.91000   0.72344   0.25278   1.000
    H173    H    0.47518   0.21201   0.22360   1.000
    H174    H    0.47518   0.71200   0.22360   1.000
    H175    H    0.97517   0.21201   0.22360   1.000
    H176    H    0.97517   0.71200   0.22360   1.000
    H177    H    0.41187   0.48356   0.72280   1.000
    H178    H    0.41187   0.98355   0.72280   1.000
    H179    H    0.91186   0.48356   0.72280   1.000
    H180    H    0.91186   0.98355   0.72280   1.000
    H181    H    0.33015   0.41961   0.74288   1.000
    H182    H    0.33016   0.91960   0.74288   1.000
    H183    H    0.83015   0.41961   0.74288   1.000
    H184    H    0.83015   0.91960   0.74288   1.000
    H185    H    0.39735   0.44492   0.79320   1.000
    H186    H    0.39735   0.94491   0.79320   1.000
    H187    H    0.89734   0.44492   0.79320   1.000
    H188    H    0.89734   0.94491   0.79320   1.000
    H189    H    0.27081   0.11014   0.86435   1.000
    H190    H    0.27081   0.61013   0.86435   1.000
    H191    H    0.77080   0.11014   0.86435   1.000
    H192    H    0.77080   0.61013   0.86435   1.000
    H193    H    0.31382   0.09143   0.91955   1.000
    H194    H    0.31382   0.59142   0.91955   1.000
    H195    H    0.81381   0.09143   0.91955   1.000
    H196    H    0.81381   0.59142   0.91955   1.000
    H197    H    0.23762   0.02636   0.89024   1.000
    H198    H    0.23762   0.52635   0.89024   1.000
    H199    H    0.73761   0.02636   0.89024   1.000
    H200    H    0.73761   0.52635   0.89024   1.000
    H201    H    0.01637   0.08786   0.77746   1.000
    H202    H    0.01638   0.58785   0.77746   1.000
    H203    H    0.51636   0.08786   0.77746   1.000
    H204    H    0.51636   0.58785   0.77746   1.000
    H205    H    0.08035   0.16964   0.75733   1.000
    H206    H    0.08035   0.66963   0.75733   1.000
    H207    H    0.58034   0.16964   0.75733   1.000
    C208    C    0.25236   0.77477   0.80125   1.000
    C209    C    0.75235   0.27478   0.80125   1.000
    C210    C    0.75235   0.77477   0.80125   1.000
    C211    C    0.37631   0.46265   0.75906   1.000
    C212    C    0.37631   0.96264   0.75906   1.000
    C213    C    0.87630   0.46265   0.75906   1.000
    C214    C    0.87630   0.96264   0.75906   1.000
    C215    C    0.28355   0.07282   0.87953   1.000
    H216    H    0.55481   0.60233   0.70697   1.000
    H217    H    0.39037   0.22955   0.63542   1.000
    H218    H    0.39037   0.72954   0.63542   1.000
    H219    H    0.89036   0.22955   0.63542   1.000
    H220    H    0.89036   0.72954   0.63542   1.000
    H221    H    0.40880   0.18640   0.58022   1.000
    H222    H    0.40880   0.68639   0.58022   1.000
    H223    H    0.90879   0.18640   0.58022   1.000
    H224    H    0.90879   0.68639   0.58022   1.000
    H225    H    0.47395   0.26258   0.60957   1.000
    H226    H    0.47395   0.76257   0.60957   1.000
    H227    H    0.97394   0.26258   0.60957   1.000
    H228    H    0.97394   0.76257   0.60957   1.000
    H229    H    0.41207   0.42818   0.11100   1.000
    H230    H    0.41207   0.92817   0.11100   1.000
    H231    H    0.91206   0.42818   0.11000   1.000
    H232    H    0.91206   0.92817   0.11000   1.000
    H233    H    0.33024   0.41067   0.09111   1.000
    H234    H    0.33024   0.91066   0.09111   1.000
    H235    H    0.83023   0.41067   0.09111   1.000
    H236    H    0.83023   0.91066   0.09111   1.000
    H237    H    0.39734   0.45250   0.04060   1.000
    H238    H    0.39734   0.95249   0.04065   1.000
    H239    H    0.89733   0.45250   0.04065   1.000
    H240    H    0.89733   0.95249   0.04065   1.000
    H241    H    0.27099   0.16153   0.96910   1.000
    H242    H    0.27099   0.66152   0.96910   1.000
    H243    H    0.77098   0.16153   0.96910   1.000
    H244    H    0.77098   0.66152   0.96910   1.000
    H245    H    0.31409   0.22328   0.91411   1.000
    H246    H    0.31409   0.72327   0.91411   1.000
    H247    H    0.81408   0.22328   0.91411   1.000
    H248    H    0.81408   0.72327   0.91411   1.000
    H249    H    0.23782   0.21238   0.94340   1.000
    H250    H    0.23782   0.71237   0.94340   1.000
    H251    H    0.73781   0.21238   0.94340   1.000
    H252    H    0.73781   0.71237   0.94340   1.000
    H253    H    0.07208   0.48368   0.44473   1.000
    H254    H    0.07208   0.98367   0.44473   1.000
    H255    H    0.57207   0.48368   0.44473   1.000
    H256    H    0.57207   0.98367   0.44473   1.000
    H257    H    0.08960   0.41926   0.42446   1.000
    H258    H    0.08960   0.91925   0.42446   1.000
    H259    H    0.58959   0.41926   0.42446   1.000
    H260    H    0.58959   0.91925   0.42446   1.000
    H261    H    0.04793   0.44533   0.37424   1.000
    H262    H    0.04793   0.94532   0.37424   1.000
    H263    H    0.54792   0.44533   0.37424   1.000
    H264    H    0.54792   0.94532   0.37424   1.000
    H265    H    0.33805   0.10858   0.30221   1.000
    H266    H    0.33805   0.60857   0.30221   1.000
    H267    H    0.83804   0.10858   0.30221   1.000
    H268    H    0.83804   0.60857   0.30221   1.000
    C269    C    0.25617   0.01318   0.08331   1.000
    C270    C    0.25616   0.51317   0.08330   1.000
    C271    C    0.75615   0.01318   0.08330   1.000
    C272    C    0.75616   0.51317   0.08330   1.000
    C273    C    0.29172   0.08302   0.08350   1.000
    C274    C    0.29172   0.58301   0.08350   1.000
    C275    C    0.79171   0.08302   0.08350   1.000
    C276    C    0.79171   0.58301   0.08350   1.000
    C277    C    0.25631   0.24360   0.75008   1.000
    C278    C    0.25631   0.74359   0.75008   1.000
    H279    H    0.28770   0.52483   0.27657   1.000
    H280    H    0.78769   0.02484   0.27650   1.000
    H281    H    0.78769   0.52483   0.27657   1.000
    H282    H    0.48364   0.41200   0.27720   1.000
    H283    H    0.48364   0.91199   0.27720   1.000
    H284    H    0.98363   0.41200   0.27720   1.000
    H285    H    0.98363   0.91199   0.27720   1.000
    H286    H    0.41981   0.33018   0.25709   1.000
    H287    H    0.41981   0.83017   0.25709   1.000
    H288    H    0.91980   0.33018   0.25709   1.000
    H289    H    0.91980   0.83017   0.25709   1.000
    H290    H    0.44516   0.39759   0.20672   1.000
    H291    H    0.44516   0.89758   0.20672   1.000
    H292    H    0.94514   0.39759   0.20672   1.000
    H293    H    0.94515   0.89758   0.20672   1.000
    H294    H    0.10985   0.27062   0.13555   1.000
    H295    H    0.10985   0.77061   0.13555   1.000
    H296    H    0.60984   0.27062   0.13555   1.000
    H297    H    0.60984   0.77061   0.13555   1.000
    H298    H    0.09132   0.31381   0.08032   1.000
    H299    H    0.09132   0.81380   0.08032   1.000
    H300    H    0.59131   0.31381   0.08032   1.000
    H301    H    0.59131   0.81380   0.08032   1.000
    H302    H    0.02625   0.23753   0.10972   1.000
    H303    H    0.02625   0.73752   0.10972   1.000
    H304    H    0.52624   0.23753   0.10972   1.000
    H305    H    0.52624   0.73752   0.10972   1.000
    H306    H    0.08790   0.07162   0.61111   1.000
    H307    H    0.08790   0.57161   0.61111   1.000
    H308    H    0.58789   0.07162   0.61111   1.000
    H309    H    0.58789   0.57161   0.61110   1.000
    H310    H    0.16970   0.08910   0.59123   1.000
    H311    H    0.16970   0.58909   0.59123   1.000
    H312    H    0.66969   0.08910   0.59123   1.000
    H313    H    0.66968   0.58909   0.59123   1.000
    H314    H    0.10255   0.04731   0.54080   1.000
    H315    H    0.10255   0.54730   0.54083   1.000
    H316    H    0.60254   0.04731   0.54082   1.000
    H317    H    0.60254   0.54729   0.54083   1.000
    H318    H    0.22910   0.33835   0.46889   1.000
    H319    H    0.22910   0.83834   0.46890   1.000
    H320    H    0.72909   0.33835   0.46889   1.000
    H321    H    0.72909   0.83834   0.46890   1.000
    H322    H    0.18605   0.27682   0.41383   1.000
    H323    H    0.18605   0.77681   0.41380   1.000
    H324    H    0.68604   0.27683   0.41383   1.000
    H325    H    0.68604   0.77681   0.41384   1.000
    H326    H    0.26214   0.28741   0.44332   1.000
    H327    H    0.26215   0.78740   0.44332   1.000
    H328    H    0.76213   0.28741   0.44332   1.000
    H329    H    0.76213   0.78740   0.44333   1.000
    H330    H    0.42776   0.01607   0.94478   1.000
    H331    H    0.42776   0.51606   0.94478   1.000
    H332    H    0.92775   0.01607   0.94478   1.000
    H333    H    0.92775   0.51606   0.94478   1.000
    H334    H    0.41041   0.08066   0.92450   1.000
    H335    H    0.41041   0.58065   0.92450   1.000
    H336    H    0.91040   0.08066   0.92450   1.000
    H337    H    0.91040   0.58065   0.92450   1.000
    H338    H    0.45185   0.05449   0.87423   1.000
    H339    H    0.45185   0.55448   0.87423   1.000
    H340    H    0.95184   0.05449   0.87423   1.000
    H341    H    0.95184   0.55448   0.87423   1.000
    H342    H    0.16185   0.39147   0.80214   1.000
    H343    H    0.16185   0.89146   0.80214   1.000
    H344    H    0.66184   0.39147   0.80214   1.000
    H345    H    0.66184   0.89146   0.80214   1.000
    H346    H    0.22356   0.40994   0.74722   1.000
    H347    H    0.22356   0.90993   0.74722   1.000
    H348    H    0.72355   0.40994   0.74722   1.000
    H349    H    0.72355   0.90993   0.74720   1.000
    H350    H    0.21222   0.47525   0.77643   1.000
    H351    H    0.21222   0.97524   0.77643   1.000
    H352    H    0.71221   0.47525   0.77643   1.000
    H353    H    0.71221   0.97524   0.77643   1.000
    C354    C    0.47823   0.25213   0.96779   1.000
    C355    C    0.47823   0.75212   0.96779   1.000
    C356    C    0.97822   0.25213   0.96779   1.000
    C357    C    0.97822   0.75212   0.96779   1.000
    C358    C    0.41333   0.37623   0.92522   1.000
    C359    C    0.41334   0.87622   0.92522   1.000
    C360    C    0.91332   0.37623   0.92522   1.000
    C361    C    0.91333   0.87622   0.92522   1.000
    C362    C    0.21176   0.28365   0.04645   1.000
    C363    C    0.21176   0.78364   0.04645   1.000
    C364    C    0.71175   0.28365   0.04645   1.000
    C365    C    0.71175   0.78364   0.04645   1.000
    C366    C    0.46270   0.08648   0.59170   1.000
    C367    C    0.46270   0.58647   0.59170   1.000
    C368    C    0.96269   0.08648   0.59170   1.000
    C369    C    0.96269   0.58647   0.59170   1.000
    C370    C    0.07150   0.28841   0.71271   1.000
    C371    C    0.07150   0.78840   0.71271   1.000
    C372    C    0.57149   0.28841   0.71271   1.000
    C373    C    0.57149   0.78840   0.71271   1.000
    C374    C    0.24761   0.22523   0.30119   1.000
    C375    C    0.24762   0.72522   0.30119   1.000
    C376    C    0.74760   0.22523   0.30119   1.000
    C377    C    0.74760   0.72522   0.30119   1.000
    C378    C    0.12363   0.03753   0.25887   1.000
    C379    C    0.12363   0.53752   0.25887   1.000
    C380    C    0.62362   0.03753   0.25887   1.000
    C381    C    0.62362   0.53752   0.25887   1.000
    C382    C    0.21640   0.42723   0.37962   1.000
    C383    C    0.21640   0.92722   0.37962   1.000
    C384    C    0.71639   0.42723   0.37962   1.000
    C385    C    0.71639   0.92722   0.37962   1.000
    C386    C    0.08647   0.12369   0.42516   1.000
    C387    C    0.08647   0.62368   0.42516   1.000
    C388    C    0.58646   0.12369   0.42515   1.000
    C389    C    0.58647   0.62368   0.42516   1.000
    C390    C    0.28808   0.21616   0.54629   1.000
    C391    C    0.28808   0.71615   0.54629   1.000
    C392    C    0.78807   0.21616   0.54628   1.000
    C393    C    0.78807   0.71614   0.54629   1.000
    C394    C    0.22494   0.47807   0.13445   1.000
    C395    C    0.22494   0.97806   0.13445   1.000
    C396    C    0.72493   0.47807   0.13445   1.000
    C397    C    0.72493   0.97806   0.13445   1.000
    C398    C    0.03738   0.41363   0.09145   1.000
    C399    C    0.03738   0.91363   0.09145   1.000
    C400    C    0.53737   0.41364   0.09145   1.000
    C401    C    0.53737   0.91363   0.09145   1.000
    C402    C    0.42868   0.21161   0.21284   1.000
    C403    C    0.42868   0.71160   0.21284   1.000
    C404    C    0.92867   0.21161   0.21284   1.000
    C405    C    0.92867   0.71160   0.21284   1.000
    C406    C    0.25236   0.27478   0.80125   1.000
    C407    C    0.28355   0.57281   0.87953   1.000
    C408    C    0.78354   0.07282   0.87953   1.000
    C409    C    0.78354   0.57281   0.87953   1.000
    C410    C    0.22480   0.24722   0.69897   1.000
    C411    C    0.22480   0.74721   0.69897   1.000
    C412    C    0.72479   0.24722   0.69897   1.000
    C413    C    0.72479   0.74721   0.69897   1.000
    C414    C    0.03727   0.12349   0.74117   1.000
    C415    C    0.03727   0.62348   0.74117   1.000
    C416    C    0.53726   0.12349   0.74117   1.000
    C417    C    0.53726   0.62348   0.74117   1.000
    C418    C    0.42749   0.21664   0.62025   1.000
    C419    C    0.42750   0.71663   0.62025   1.000
    C420    C    0.92748   0.21664   0.62025   1.000
    C421    C    0.92749   0.71663   0.62025   1.000
    C422    C    0.25178   0.47808   0.03200   1.000
    C423    C    0.25178   0.97807   0.03202   1.000
    C424    C    0.75177   0.47808   0.03202   1.000
    C425    C    0.75177   0.97807   0.03202   1.000
    C426    C    0.37643   0.41373   0.07479   1.000
    C427    C    0.37643   0.91372   0.07479   1.000
    C428    C    0.87642   0.41373   0.07479   1.000
    C429    C    0.87642   0.91372   0.07479   1.000
    C430    C    0.28374   0.21158   0.95410   1.000
    C431    C    0.28374   0.71157   0.95410   1.000
    C432    C    0.78373   0.21158   0.95410   1.000
    C433    C    0.78373   0.71157   0.95410   1.000
    C434    C    0.08657   0.46262   0.40838   1.000
    C435    C    0.08657   0.96261   0.40838   1.000
    C436    C    0.58656   0.46262   0.40838   1.000
    C437    C    0.58656   0.96261   0.40838   1.000
    C438    C    0.28819   0.07147   0.28722   1.000
    C439    C    0.28819   0.57146   0.28722   1.000
    C440    C    0.78818   0.07147   0.28722   1.000
    C441    C    0.78818   0.57146   0.28722   1.000
    C442    C    0.27512   0.25265   0.19887   1.000
    C443    C    0.27512   0.75264   0.19887   1.000
    C444    C    0.77511   0.25265   0.19887   1.000
    C445    C    0.77511   0.75264   0.19887   1.000
    C446    C    0.46280   0.37644   0.24092   1.000
    C447    C    0.46280   0.87643   0.24092   1.000
    C448    C    0.96279   0.37644   0.24092   1.000
    C449    C    0.96279   0.87643   0.24092   1.000
    C450    C    0.07268   0.28349   0.12037   1.000
    C451    C    0.07268   0.78348   0.12037   1.000
    C452    C    0.57267   0.28349   0.12037   1.000
    C453    C    0.57267   0.78348   0.12037   1.000
    C454    C    0.12350   0.08607   0.57489   1.000
    C455    C    0.12350   0.58606   0.57489   1.000
    C456    C    0.62349   0.08607   0.57489   1.000
    C457    C    0.62349   0.58606   0.57489   1.000
    C458    C    0.21626   0.28831   0.45390   1.000
    C459    C    0.21626   0.78830   0.45390   1.000
    C460    C    0.71625   0.28831   0.45300   1.000
    C461    C    0.71625   0.78830   0.45390   1.000
    C462    C    0.47830   0.22516   0.86540   1.000
    C463    C    0.47830   0.72516   0.86540   1.000
    C464    C    0.97829   0.22516   0.86540   1.000
    C465    C    0.97829   0.72516   0.86540   1.000
    C466    C    0.41328   0.03724   0.90843   1.000
    C467    C    0.41328   0.53723   0.90843   1.000
    C468    C    0.91327   0.03724   0.90843   1.000
    C469    C    0.91327   0.53723   0.90843   1.000
    C470    C    0.21173   0.42860   0.78717   1.000
    C471    C    0.21173   0.92860   0.78717   1.000
    C472    C    0.71172   0.42861   0.78717   1.000
    C473    C    0.71172   0.92860   0.78717   1.000
    C474    C    0.01335   0.25626   0.91658   1.000
    C475    C    0.01335   0.75625   0.91658   1.000
    C476    C    0.51334   0.25626   0.91658   1.000
    C477    C    0.51334   0.75626   0.91658   1.000
    C478    C    0.08308   0.29139   0.91654   1.000
    C479    C    0.08308   0.79138   0.91654   1.000
    C480    C    0.58306   0.29139   0.91654   1.000
    C481    C    0.58307   0.79138   0.91654   1.000
    C482    C    0.24374   0.25648   0.24995   1.000
    C483    C    0.24374   0.75647   0.24995   1.000
    C484    C    0.74373   0.25648   0.24995   1.000
    C485    C    0.74373   0.75647   0.24995   1.000
    C486    C    0.20863   0.29139   0.24987   1.000
    C487    C    0.20863   0.79138   0.24987   1.000
    C488    C    0.70862   0.29139   0.24987   1.000
    C489    C    0.70862   0.79138   0.24987   1.000
    C490    C    0.75630   0.24360   0.75008   1.000
    C491    C    0.75630   0.74359   0.75008   1.000
    C492    C    0.29162   0.20889   0.74999   1.000
    C493    C    0.29162   0.70888   0.74999   1.000
    C494    C    0.79161   0.20889   0.74990   1.000
    C495    C    0.79161   0.70888   0.74999   1.000
    N496    N    0.44860   0.24783   0.01064   1.000
    N497    N    0.44860   0.74782   0.01064   1.000
    N498    N    0.94859   0.24783   0.01064   1.000
    N499    N    0.94859   0.74782   0.01064   1.000
    N500    N    0.25162   0.19971   0.34412   1.000
    N501    N    0.25163   0.69970   0.34412   1.000
    N502    N    0.75161   0.19971   0.34412   1.000
    N503    N    0.75161   0.69970   0.34412   1.000
    N504    N    0.19941   0.44847   0.17725   1.000
    N505    N    0.19941   0.94846   0.17725   1.000
    N506    N    0.69940   0.44847   0.17725   1.000
    N507    N    0.69940   0.94846   0.17725   1.000
    N508    N    0.24828   0.30027   0.84410   1.000
    N509    N    0.24828   0.80026   0.84410   1.000
    N510    N    0.74827   0.30027   0.84410   1.000
    N511    N    0.74827   0.80026   0.84410   1.000
    N512    N    0.19903   0.25099   0.65615   1.000
    N513    N    0.19903   0.75098   0.65615   1.000
    N514    N    0.69902   0.25099   0.65615   1.000
    N515    N    0.69902   0.75098   0.65615   1.000
    N516    N    0.24725   0.44846   0.98907   1.000
    N517    N    0.24725   0.94845   0.98907   1.000
    N518    N    0.74724   0.44846   0.98907   1.000
    N519    N    0.74725   0.94845   0.98907   1.000
    N520    N    0.30080   0.24863   0.15614   1.000
    N521    N    0.30080   0.74862   0.15614   1.000
    N522    N    0.80079   0.24863   0.15614   1.000
    N523    N    0.80079   0.74862   0.15614   1.000
    N524    N    0.44866   0.19972   0.82267   1.000
    N525    N    0.44866   0.69971   0.82260   1.000
    N526    N    0.94865   0.19972   0.82267   1.000
    N527    N    0.94865   0.69971   0.82267   1.000
    N528    N    0.14136   0.32077   0.91652   1.000
    N529    N    0.14136   0.82077   0.91652   1.000
    N530    N    0.64135   0.32078   0.91652   1.000
    N531    N    0.64135   0.82077   0.91652   1.000
    N532    N    0.17927   0.32056   0.24986   1.000
    N533    N    0.17927   0.82055   0.24986   1.000
    N534    N    0.67926   0.32056   0.24986   1.000
    N535    N    0.67926   0.82055   0.24986   1.000
    N536    N    0.32151   0.14140   0.08369   1.000
    N537    N    0.32151   0.64139   0.08369   1.000
    N538    N    0.82149   0.14140   0.08369   1.000
    N539    N    0.82149   0.64139   0.08369   1.000
    N540    N    0.32114   0.17987   0.74987   1.000
    N541    N    0.32114   0.67986   0.74987   1.000
    N542    N    0.82113   0.17987   0.74987   1.000
    N543    N    0.82113   0.67986   0.74987   1.000
    O544    O    0.35109   0.36439   0.94718   1.000
    O545    O    0.35109   0.86438   0.94718   1.000
    O546    O    0.85108   0.36439   0.94718   1.000
    O547    O    0.85108   0.86438   0.94718   1.000
    O548    O    0.25783   0.31957   0.00000   1.000
    O549    O    0.25782   0.81956   0.00000   1.000
    O550    O    0.75781   0.31957   0.00000   1.000
    O551    O    0.75781   0.81956   0.00000   1.000
    O552    O    0.01303   0.14868   0.61362   1.000
    O553    O    0.01303   0.64867   0.61362   1.000
    O554    O    0.51302   0.14868   0.61362   1.000
    O555    O    0.51302   0.64867   0.61362   1.000
    O556    O    0.06098   0.24239   0.66722   1.000
    O557    O    0.06098   0.74238   0.66722   1.000
    O558    O    0.56097   0.24239   0.66722   1.000
    O559    O    0.56097   0.74238   0.66722   1.000
    O560    O    0.13541   0.48680   0.28070   1.000
    O561    O    0.13541   0.98679   0.28070   1.000
    O562    O    0.63540   0.48680   0.28070   1.000
    O563    O    0.63540   0.98679   0.28070   1.000
    O564    O    0.18061   0.43791   0.33439   1.000
    O565    O    0.18061   0.93790   0.33439   1.000
    O566    O    0.68060   0.43791   0.33439   1.000
    O567    O    0.68060   0.93790   0.33439   1.000
    O568    O    0.14864   0.13534   0.44720   1.000
    O569    O    0.14864   0.63533   0.44720   1.000
    O570    O    0.64863   0.13533   0.44720   1.000
    O571    O    0.64863   0.63533   0.44720   1.000
    O572    O    0.24203   0.18028   0.50103   1.000
    O573    O    0.24203   0.68027   0.50103   1.000
    O574    O    0.74202   0.18028   0.50102   1.000
    O575    O    0.74202   0.68026   0.50104   1.000
    O576    O    0.48718   0.35129   0.11334   1.000
    O577    O    0.48718   0.85128   0.11334   1.000
    O578    O    0.98717   0.35129   0.11334   1.000
    O579    O    0.98717   0.85128   0.11334   1.000
    O580    O    0.43916   0.25769   0.16700   1.000
    O581    O    0.43916   0.75768   0.16700   1.000
    O582    O    0.93915   0.25769   0.16700   1.000
    O583    O    0.93915   0.75768   0.16700   1.000
    O584    O    0.36457   0.01336   0.78088   1.000
    O585    O    0.36457   0.51335   0.78088   1.000
    O586    O    0.86456   0.01336   0.78088   1.000
    O587    O    0.86456   0.51335   0.78088   1.000
    O588    O    0.31913   0.06208   0.83423   1.000
    O589    O    0.31913   0.56207   0.83423   1.000
    O590    O    0.81912   0.06208   0.83423   1.000
    O591    O    0.81912   0.56207   0.83423   1.000
    O592    O    0.48673   0.13545   0.71935   1.000
    O593    O    0.48673   0.63544   0.71935   1.000
    O594    O    0.98672   0.13545   0.71935   1.000
    O595    O    0.98672   0.63544   0.71935   1.000
    O596    O    0.43809   0.18080   0.66555   1.000
    O597    O    0.43809   0.68079   0.66555   1.000
    O598    O    0.93808   0.18080   0.66555   1.000
    O599    O    0.93808   0.68079   0.66555   1.000
    O600    O    0.36489   0.35150   0.05270   1.000
    O601    O    0.36488   0.85149   0.05270   1.000
    O602    O    0.86487   0.35150   0.05270   1.000
    O603    O    0.86487   0.85149   0.05270   1.000
    O604    O    0.31919   0.25753   0.99959   1.000
    O605    O    0.31919   0.75752   0.99950   1.000
    O606    O    0.81918   0.25753   0.99958   1.000
    O607    O    0.81918   0.75752   0.99958   1.000
    O608    O    0.14873   0.01301   0.38648   1.000
    O609    O    0.14873   0.51300   0.38648   1.000
    O610    O    0.64872   0.01301   0.38648   1.000
    O611    O    0.64872   0.51301   0.38648   1.000
    O612    O    0.24221   0.06104   0.33269   1.000
    O613    O    0.24221   0.56103   0.33269   1.000
    O614    O    0.74220   0.06104   0.33269   1.000
    O615    O    0.74220   0.56103   0.33269   1.000
    O616    O    0.01345   0.36472   0.21909   1.000
    O617    O    0.01345   0.86471   0.21909   1.000
    O618    O    0.51344   0.36472   0.21909   1.000
    O619    O    0.51344   0.86471   0.21909   1.000
    O620    O    0.06204   0.31920   0.16564   1.000
    O621    O    0.06204   0.81919   0.16564   1.000
    O622    O    0.56203   0.31920   0.16564   1.000
    O623    O    0.56203   0.81919   0.16564   1.000
    O624    O    0.13506   0.14831   0.55270   1.000
    O625    O    0.13506   0.64830   0.55277   1.000
    O626    O    0.63505   0.14832   0.55270   1.000
    O627    O    0.63504   0.64830   0.55277   1.000
    O628    O    0.18059   0.24224   0.49930   1.000
    O629    O    0.18060   0.74223   0.49931   1.000
    O630    O    0.68058   0.24224   0.49930   1.000
    O631    O    0.68059   0.74223   0.49931   1.000
    O632    O    0.35102   0.48700   0.88664   1.000
    O633    O    0.35102   0.98699   0.88664   1.000
    O634    O    0.85101   0.48700   0.88664   1.000
    O635    O    0.85101   0.98699   0.88664   1.000
    O636    O    0.25766   0.43897   0.83269   1.000
    O637    O    0.25766   0.93896   0.83269   1.000
    O638    O    0.75765   0.43897   0.83269   1.000
    O639    O    0.75765   0.93896   0.83269   1.000
loop_
    _geom_bond_atom_site_label_1
    _geom_bond_atom_site_label_2
    _geom_bond_distance
    _geom_bond_site_symmetry_2
    _ccdc_geom_bond_type
    O551   B26       1.47616      .   S
    O551   C365      1.44125      .   S
    O548   B23       1.47615      .   S
    O548   C362      1.44131      .   S
    B25    O550      1.47616      .   S
    B25    O602      1.47798      .   S
    B25    O546      1.47272  1_554   S
    B25    O606      1.47630  1_554   S
    O550   C364      1.44126      .   S
    B24    O549      1.47614      .   S
    B24    O601      1.47799      .   S
    B24    O545      1.47271  1_554   S
    B24    O605      1.47633  1_554   S
    O549   C363      1.44127      .   S
    B26    O603      1.47417      .   S
    B26    O547      1.47640  1_554   S
    B26    O607      1.47649  1_554   S
    B23    O600      1.47423      .   S
    B23    O544      1.47635  1_554   S
    B23    O604      1.47647  1_554   S
    N497   Cd16      2.40542      .   S
    N497   C355      1.17266  1_554   S
    N496   Cd15      2.40539      .   S
    N496   C354      1.17265  1_554   S
    N498   Cd17      2.40541      .   S
    N498   C356      1.17265  1_554   S
    N499   Cd18      2.40542      .   S
    N499   C357      1.17265  1_554   S
    H60    C362      1.09765      .   S
    H61    C363      1.09768      .   S
    H62    C364      1.09768      .   S
    H63    C365      1.09768      .   S
    C422   C270      1.40254      .   S
    C422   N516      1.17260  1_554   S
    C425   C271      1.40241  1_565   S
    C425   N519      1.17300  1_554   S
    C424   C272      1.40216      .   S
    C424   N518      1.17299  1_554   S
    C423   C269      1.40260  1_565   S
    C423   N517      1.17299  1_554   S
    H237   C426      1.10362      .   S
    H240   C429      1.10280      .   S
    H239   C428      1.10280      .   S
    H238   C427      1.10282      .   S
    C363   H69       1.10075      .   S
    C363   H65       1.10262      .   S
    C365   H71       1.10072      .   S
    C365   H67       1.10265      .   S
    C362   H68       1.10075      .   S
    C362   H64       1.10279      .   S
    C364   H70       1.10072      .   S
    C364   H66       1.10264      .   S
    O603   C429      1.42061      .   S
    O602   C428      1.42061      .   S
    O601   C427      1.42059      .   S
    O600   C426      1.42059      .   S
    H155   C400      1.09794      .   S
    H153   C398      1.09793      .   S
    H154   C399      1.09793      .   S
    H156   C401      1.09795      .   S
    C429   H236      1.10249      .   S
    C429   H232      1.08084      .   S
    C428   H235      1.10248      .   S
    C428   H231      1.08084      .   S
    C427   H234      1.10248      .   S
    C427   H230      1.09799      .   S
    C426   H233      1.10248      .   S
    C426   H229      1.09799      .   S
    H159   C400      1.10249      .   S
    H160   C401      1.10246      .   S
    H158   C399      1.10249      .   S
    H157   C398      1.10247      .   S
    H301   C453      1.10262      .   S
    H300   C452      1.10262      .   S
    H299   C451      1.10262      .   S
    H298   C450      1.10261      .   S
    C272   C276      1.40250      .   S
    C272   C396      1.40259      .   S
    Cd15   N536      2.40647      .   S
    Cd16   N537      2.40649      .   S
    Cd17   N538      2.40647      .   S
    Cd18   N539      2.40647      .   S
    C270   C274      1.40250      .   S
    C270   C394      1.40259      .   S
    C271   C275      1.40248      .   S
    C271   C397      1.40273  1_545   S
    C269   C273      1.40248      .   S
    C269   C395      1.40253  1_545   S
    C275   N538      1.17236      .   S
    C276   N539      1.17234      .   S
    C274   N537      1.17234      .   S
    C273   N536      1.17236      .   S
    C398   O578      1.42022  1_455   S
    C398   H161      1.10284      .   S
    C399   O579      1.42022  1_455   S
    C399   H162      1.10283      .   S
    C400   O576      1.42008      .   S
    C400   H163      1.10283      .   S
    C401   O577      1.42007      .   S
    C401   H164      1.10283      .   S
    H302   C450      1.10073      .   S
    H303   C451      1.10074      .   S
    H304   C452      1.10074      .   S
    H305   C453      1.10073      .   S
    O576   B42       1.47688      .   S
    O577   B43       1.47688      .   S
    O578   B40       1.47708  1_655   S
    O579   B41       1.47709  1_655   S
    C450   H294      1.09778      .   S
    C450   O620      1.42145      .   S
    C453   H297      1.09778      .   S
    C453   O623      1.42145      .   S
    C452   H296      1.09776      .   S
    C452   O622      1.42145      .   S
    C451   H295      1.09776      .   S
    C451   O621      1.42145      .   S
    C396   N506      1.17223      .   S
    C394   N504      1.17224      .   S
    C395   N505      1.17224      .   S
    C397   N507      1.17223      .   S
    N521   C443      1.17223      .   S
    N522   C444      1.17223      .   S
    N520   C442      1.17222      .   S
    N523   C445      1.17222      .   S
    O621   B41       1.47568      .   S
    O620   B40       1.47566      .   S
    O623   B43       1.47566      .   S
    O622   B42       1.47566      .   S
    B43    O581      1.47618      .   S
    B43    O619      1.47718      .   S
    B42    O580      1.47619      .   S
    B42    O618      1.47718      .   S
    B41    O583      1.47640  1_455   S
    B41    O617      1.47718      .   S
    B40    O582      1.47640  1_455   S
    B40    O616      1.47718      .   S
    O583   C405      1.42659      .   S
    O580   C402      1.42659      .   S
    O581   C403      1.42658      .   S
    O582   C404      1.42659      .   S
    N507   Cd10      2.40521      .   S
    N506   Cd9       2.40520      .   S
    N505   Cd8       2.40520      .   S
    N504   Cd7       2.40520      .   S
    H168   C405      1.09776      .   S
    H167   C404      1.09776      .   S
    H166   C403      1.09775      .   S
    H165   C402      1.09775      .   S
    C442   C482      1.40259      .   S
    C443   C483      1.40258      .   S
    C444   C484      1.40259      .   S
    C445   C485      1.40259      .   S
    H290   C446      1.10271      .   S
    H291   C447      1.10271      .   S
    H292   C448      1.10271      .   S
    H293   C449      1.10271      .   S
    C402   H173      1.10073      .   S
    C402   H169      1.10269      .   S
    C403   H174      1.10073      .   S
    C403   H170      1.10269      .   S
    C404   H175      1.10073      .   S
    C404   H171      1.10270      .   S
    C405   H176      1.10073      .   S
    C405   H172      1.10271      .   S
    O619   C447      1.42016      .   S
    O616   C448      1.42063  1_455   S
    O617   C449      1.42065  1_455   S
    O618   C446      1.42018      .   S
    H96    C378      1.09805      .   S
    H99    C381      1.09803      .   S
    H97    C379      1.09805      .   S
    H98    C380      1.09803      .   S
    C446   H286      1.10238      .   S
    C446   H282      1.09791      .   S
    C447   H287      1.10239      .   S
    C447   H283      1.09791      .   S
    C448   H288      1.10238      .   S
    C448   H284      1.09791      .   S
    C449   H289      1.10240      .   S
    C449   H285      1.09790      .   S
    H107   C381      1.10240      .   S
    H104   C378      1.10240      .   S
    H105   C379      1.10240      .   S
    H106   C380      1.10240      .   S
    H135   C441      1.10276      .   S
    H134   C440      1.10276      .   S
    H133   C439      1.10276      .   S
    H132   C438      1.10275      .   S
    N532   C486      1.17234      .   S
    N532   Cd7       2.40419      .   S
    N533   C487      1.17232      .   S
    N533   Cd8       2.40419      .   S
    N534   C488      1.17234      .   S
    N534   Cd9       2.40419      .   S
    N535   C489      1.17232      .   S
    N535   Cd10      2.40419      .   S
    C489   C485      1.40247      .   S
    C486   C482      1.40245      .   S
    C488   C484      1.40245      .   S
    C487   C483      1.40247      .   S
    C482   C374      1.40231      .   S
    C485   C377      1.40231      .   S
    C484   C376      1.40231      .   S
    C483   C375      1.40231      .   S
    C378   O561      1.42052  1_545   S
    C378   H108      1.10265      .   S
    C379   O560      1.42008      .   S
    C379   H109      1.10263      .   S
    C380   O563      1.42054  1_545   S
    C380   H110      1.10263      .   S
    C381   O562      1.42010      .   S
    C381   H111      1.10262      .   S
    H136   C438      1.10112      .   S
    H280   C440      1.10113      .   S
    H281   C441      1.10076      .   S
    H279   C439      1.10075      .   S
    O561   B31       1.47770      .   S
    O562   B35       1.47777      .   S
    O563   B34       1.47771      .   S
    O560   B33       1.47779      .   S
    C441   H268      1.09772      .   S
    C441   O615      1.42154      .   S
    C440   H267      1.09772      .   S
    C440   O614      1.42154      .   S
    C439   H266      1.09772      .   S
    C439   O613      1.42154      .   S
    C438   H265      1.09772      .   S
    C438   O612      1.42152      .   S
    C374   N500      1.17232      .   S
    C375   N501      1.17232      .   S
    C376   N502      1.17233      .   S
    C377   N503      1.17231      .   S
    O613   B33       1.47607      .   S
    O614   B34       1.47607  1_545   S
    O615   B35       1.47607      .   S
    O612   B31       1.47609  1_545   S
    B35    O566      1.47622      .   S
    B35    O611      1.47668      .   S
    B34    O567      1.47671      .   S
    B34    O610      1.47667  1_565   S
    B33    O564      1.47621      .   S
    B33    O609      1.47669      .   S
    B31    O565      1.47668      .   S
    B31    O608      1.47668  1_565   S
    O564   C382      1.42166      .   S
    O565   C383      1.42166      .   S
    O566   C384      1.42166      .   S
    O567   C385      1.42163      .   S
    N503   Cd14      2.40371      .   S
    N502   Cd13      2.40369      .   S
    N501   Cd12      2.40369      .   S
    N500   Cd11      2.40371      .   S
    H113   C383      1.09776      .   S
    H112   C382      1.09776      .   S
    H114   C384      1.09778      .   S
    H115   C385      1.09779      .   S
    H263   C436      1.10272      .   S
    H262   C435      1.10270      .   S
    H261   C434      1.10272      .   S
    H264   C437      1.10272      .   S
    C385   H123      1.10067      .   S
    C385   H119      1.10260      .   S
    C384   H122      1.10067      .   S
    C384   H118      1.10260      .   S
    C383   H121      1.10067      .   S
    C383   H117      1.10260      .   S
    C382   H120      1.10067      .   S
    C382   H116      1.10260      .   S
    O608   C435      1.42014  1_545   S
    O609   C434      1.42003      .   S
    O610   C437      1.42013  1_545   S
    O611   C436      1.42003      .   S
    H124   C386      1.09805      .   S
    H125   C387      1.09805      .   S
    H126   C388      1.09786      .   S
    H127   C389      1.09787      .   S
    C437   H260      1.10247      .   S
    C437   H256      1.09790      .   S
    C436   H259      1.10248      .   S
    C436   H255      1.09790      .   S
    C435   H258      1.10248      .   S
    C435   H254      1.09790      .   S
    C434   H257      1.10248      .   S
    C434   H253      1.09789      .   S
    H130   C388      1.10269      .   S
    H128   C386      1.10253      .   S
    H129   C387      1.10254      .   S
    H131   C389      1.10254      .   S
    H323   C459      1.10335      .   S
    H324   C460      1.08569      .   S
    H322   C458      1.10276      .   S
    H325   C461      1.10260      .   S
    C388   O570      1.41999      .   S
    C388   H139      1.10156      .   S
    C386   O568      1.41993      .   S
    C386   H137      1.10268      .   S
    C387   O569      1.41994      .   S
    C387   H138      1.10267      .   S
    C389   O571      1.41993      .   S
    C389   H140      1.10267      .   S
    H326   C458      1.10081      .   S
    H327   C459      1.10081      .   S
    H328   C460      1.09649      .   S
    H329   C461      1.10075      .   S
    O568   B36       1.47592      .   S
    O569   B37       1.47591      .   S
    O570   B38       1.47596      .   S
    O571   B39       1.47586      .   S
    C460   H320      1.10424      .   S
    C460   O630      1.43676      .   S
    C458   H318      1.09761      .   S
    C458   O628      1.42165      .   S
    C459   H319      1.09769      .   S
    C459   O629      1.42179      .   S
    C461   H321      1.09769      .   S
    C461   O631      1.42175      .   S
    O630   B38       1.47666      .   S
    O628   B36       1.47667      .   S
    O631   B39       1.47667      .   S
    O629   B37       1.47666      .   S
    B38    O574      1.47637      .   S
    B38    O626      1.47469      .   S
    B39    O575      1.47637      .   S
    B39    O627      1.47611      .   S
    B37    O573      1.47635      .   S
    B37    O625      1.47608      .   S
    B36    O572      1.47636      .   S
    B36    O624      1.47472      .   S
    O574   C392      1.42156      .   S
    O572   C390      1.42160      .   S
    O573   C391      1.42162      .   S
    O575   C393      1.42149      .   S
    H143   C392      1.09766      .   S
    H142   C391      1.09771      .   S
    H141   C390      1.09771      .   S
    H144   C393      1.09764      .   S
    H314   C454      1.10312      .   S
    H316   C456      1.10279      .   S
    H317   C457      1.10265      .   S
    H315   C455      1.10265      .   S
    C392   H151      1.10081      .   S
    C392   H147      1.10280      .   S
    C390   H149      1.10078      .   S
    C390   H145      1.10257      .   S
    C391   H150      1.10078      .   S
    C391   H146      1.10274      .   S
    C393   H152      1.10080      .   S
    C393   H148      1.10271      .   S
    O624   C454      1.42056      .   S
    O626   C456      1.42057      .   S
    O625   C455      1.41999      .   S
    O627   C457      1.41998      .   S
    H73    C367      1.09786      .   S
    H75    C369      1.09786      .   S
    H74    C368      1.09788      .   S
    H72    C366      1.09785      .   S
    C454   H310      1.10249      .   S
    C454   H306      1.09790      .   S
    C457   H313      1.10247      .   S
    C457   H309      1.09771      .   S
    C456   H312      1.10247      .   S
    C456   H308      1.09790      .   S
    C455   H311      1.10248      .   S
    C455   H307      1.09790      .   S
    H79    C369      1.10249      .   S
    H78    C368      1.10249      .   S
    H77    C367      1.10250      .   S
    H76    C366      1.10250      .   S
    H222   C419      1.10266      .   S
    H223   C420      1.10267      .   S
    H224   C421      1.10267      .   S
    H221   C418      1.10266      .   S
    Cd3    N512      2.40514      .   S
    Cd5    N514      2.40513      .   S
    Cd4    N513      2.40498      .   S
    Cd6    N515      2.40499      .   S
    C366   O554      1.42002      .   S
    C366   H80       1.10272      .   S
    C367   O555      1.42002      .   S
    C367   H81       1.10272      .   S
    C368   O552      1.42018  1_655   S
    C368   H82       1.10272      .   S
    C369   O553      1.42018  1_655   S
    C369   H83       1.10272      .   S
    H225   C418      1.10066      .   S
    H228   C421      1.10066      .   S
    H227   C420      1.10066      .   S
    H226   C419      1.10067      .   S
    O555   B30       1.47675      .   S
    O554   B29       1.47582      .   S
    O553   B28       1.47675  1_455   S
    O552   B27       1.47674  1_455   S
    C421   H220      1.09785      .   S
    C421   O599      1.42172      .   S
    C420   H219      1.09783      .   S
    C420   O598      1.42172      .   S
    C419   H218      1.09787      .   S
    C419   O597      1.42170      .   S
    C418   H217      1.09783      .   S
    C418   O596      1.42173      .   S
    N512   C410      1.17233      .   S
    N513   C411      1.17233      .   S
    N514   C412      1.17233      .   S
    N515   C413      1.17232      .   S
    O599   B28       1.47660      .   S
    O598   B27       1.47660      .   S
    O597   B30       1.47609      .   S
    O596   B29       1.47608      .   S
    B29    O558      1.47587      .   S
    B29    O592      1.47812      .   S
    B30    O559      1.47586      .   S
    B30    O593      1.47719      .   S
    B28    O557      1.47587  1_655   S
    B28    O595      1.47713      .   S
    B27    O556      1.47585  1_655   S
    B27    O594      1.47714      .   S
    O557   C371      1.42140      .   S
    O556   C370      1.42140      .   S
    O558   C372      1.42142      .   S
    O559   C373      1.42142      .   S
    H87    C373      1.09772      .   S
    H86    C372      1.09772      .   S
    H85    C371      1.09772      .   S
    H84    C370      1.09772      .   S
    C410   C277      1.40233      .   S
    C411   C278      1.40233      .   S
    C412   C490      1.40233      .   S
    C413   C491      1.40235      .   S
    H216   C417      1.10265      .   S
    H101   C414      1.10265      .   S
    H103   C416      1.10266      .   S
    H102   C415      1.10264      .   S
    C373   H95       1.10075      .   S
    C373   H91       1.10278      .   S
    C370   H92       1.10076      .   S
    C370   H88       1.10278      .   S
    C371   H93       1.10077      .   S
    C371   H89       1.10277      .   S
    C372   H94       1.10077      .   S
    C372   H90       1.10277      .   S
    O593   C417      1.42027      .   S
    O592   C416      1.42027      .   S
    O594   C414      1.42073  1_655   S
    O595   C415      1.42072  1_655   S
    H177   C211      1.09783      .   S
    H178   C212      1.09782      .   S
    H179   C213      1.09782      .   S
    H180   C214      1.09783      .   S
    C415   H206      1.10240      .   S
    C415   H202      1.09795      .   S
    C414   H205      1.10240      .   S
    C414   H201      1.09796      .   S
    C417   H100      1.10241      .   S
    C417   H204      1.09795      .   S
    C416   H207      1.10240      .   S
    C416   H203      1.09795      .   S
    H182   C212      1.10237      .   S
    H183   C213      1.10237      .   S
    H184   C214      1.10237      .   S
    H181   C211      1.10236      .   S
    H349   C473      1.10301      .   S
    H347   C471      1.10264      .   S
    H346   C470      1.10264      .   S
    H348   C472      1.10265      .   S
    N542   C494      1.17230      .   S
    N542   Cd21      2.40322      .   S
    N543   Cd22      2.40324      .   S
    N543   C495      1.17230      .   S
    N541   Cd20      2.40324      .   S
    N541   C493      1.17232      .   S
    N540   Cd19      2.40324      .   S
    N540   C492      1.17230      .   S
    C494   C490      1.40247      .   S
    Cd19   N524      2.40599      .   S
    Cd20   N525      2.40489      .   S
    Cd21   N526      2.40598      .   S
    Cd22   N527      2.40599      .   S
    C492   C277      1.40246      .   S
    C493   C278      1.40244      .   S
    C495   C491      1.40242      .   S
    C491   C210      1.40245      .   S
    C278   C208      1.40245      .   S
    C277   C406      1.40245      .   S
    C490   C209      1.40245      .   S
    C213   O587      1.42023      .   S
    C213   H187      1.10142      .   S
    C212   O584      1.42066  1_565   S
    C212   H186      1.10140      .   S
    C211   O585      1.42021      .   S
    C211   H185      1.10142      .   S
    C214   O586      1.42066  1_565   S
    C214   H188      1.10143      .   S
    H353   C473      1.10078      .   S
    H350   C470      1.10076      .   S
    H351   C471      1.10077      .   S
    H352   C472      1.10076      .   S
    O584   B44       1.47709      .   S
    O587   B47       1.47707      .   S
    O586   B46       1.47707      .   S
    O585   B45       1.47709      .   S
    C471   H343      1.09773      .   S
    C471   O637      1.42151      .   S
    C472   H344      1.09774      .   S
    C472   O638      1.42150      .   S
    C473   H345      1.09773      .   S
    C473   O639      1.42151      .   S
    C470   H342      1.09773      .   S
    C470   O636      1.42151      .   S
    C406   N508      1.17237      .   S
    C208   N509      1.17237      .   S
    C209   N510      1.17237      .   S
    C210   N511      1.17238      .   S
    N525   C463      1.17306      .   S
    N524   C462      1.17172      .   S
    N526   C464      1.17172      .   S
    N527   C465      1.17172      .   S
    O639   B46       1.47624  1_565   S
    O636   B45       1.47607      .   S
    O637   B44       1.47624  1_565   S
    O638   B47       1.47608      .   S
    B47    O591      1.47600      .   S
    B47    O634      1.47684      .   S
    B46    O590      1.47600      .   S
    B46    O635      1.47706  1_545   S
    B45    O589      1.47600      .   S
    B45    O632      1.47685      .   S
    B44    O588      1.47600      .   S
    B44    O633      1.47706  1_545   S
    O588   C215      1.42145      .   S
    O589   C407      1.42146      .   S
    O590   C408      1.42146      .   S
    O591   C409      1.42146      .   S
    N510   Cd1       2.40613      .   S
    N509   Cd0       2.40614      .   S
    N508   Cd32      2.40549      .   S
    N511   Cd2       2.40613      .   S
    H190   C407      1.09779      .   S
    H189   C215      1.09779      .   S
    H191   C408      1.09779      .   S
    H192   C409      1.09781      .   S
    C462   C476      1.40308      .   S
    C463   C477      1.40309      .   S
    C464   C474      1.40325  1_655   S
    C465   C475      1.40323  1_655   S
    H340   C468      1.10276      .   S
    H341   C469      1.10276      .   S
    H339   C467      1.10276      .   S
    H338   C466      1.10277      .   S
    C409   H200      1.10072      .   S
    C409   H196      1.10262      .   S
    C215   H197      1.10072      .   S
    C215   H193      1.10262      .   S
    C407   H198      1.10072      .   S
    C407   H194      1.10262      .   S
    C408   H199      1.10073      .   S
    C408   H195      1.10261      .   S
    O635   C468      1.42002  1_565   S
    O634   C469      1.41993      .   S
    O633   C466      1.42002  1_565   S
    O632   C467      1.41992      .   S
    H49    C359      1.09803      .   S
    H50    C360      1.09802      .   S
    H51    C361      1.09802      .   S
    H48    C358      1.09786      .   S
    C466   H334      1.10249      .   S
    C466   H330      1.09805      .   S
    C469   H337      1.10248      .   S
    C469   H333      1.09805      .   S
    C468   H336      1.10250      .   S
    C468   H332      1.09804      .   S
    C467   H335      1.10251      .   S
    C467   H331      1.09804      .   S
    H52    C358      1.10262      .   S
    H55    C361      1.10256      .   S
    H54    C360      1.10255      .   S
    H53    C359      1.10254      .   S
    H245   C430      1.10266      .   S
    H246   C431      1.10265      .   S
    H247   C432      1.10264      .   S
    H248   C433      1.10264      .   S
    N530   C480      1.17239      .   S
    N529   C479      1.17239      .   S
    N528   C478      1.17239      .   S
    N531   C481      1.17239      .   S
    C478   C474      1.40251      .   S
    C479   C475      1.40253      .   S
    C480   C476      1.40251      .   S
    C481   C477      1.40251      .   S
    C475   C357      1.40284  1_455   S
    C477   C355      1.40257      .   S
    C476   C354      1.40258      .   S
    C474   C356      1.40285  1_455   S
    Cd32   N516      2.40565      .   S
    Cd2    N519      2.40497      .   S
    Cd1    N518      2.40498      .   S
    Cd0    N517      2.40497      .   S
    C358   O544      1.41991      .   S
    C358   H56       1.10276      .   S
    C359   O545      1.41993      .   S
    C359   H57       1.10130      .   S
    C360   O546      1.41993      .   S
    C360   H58       1.10260      .   S
    C361   O547      1.41993      .   S
    C361   H59       1.10260      .   S
    H249   C430      1.10078      .   S
    H250   C431      1.10081      .   S
    H251   C432      1.10081      .   S
    H252   C433      1.10081      .   S
    C433   H244      1.09769      .   S
    C433   O607      1.42189      .   S
    C430   H241      1.09769      .   S
    C430   O604      1.42203      .   S
    C431   H242      1.09769      .   S
    C431   O605      1.42054      .   S
    C432   H243      1.09767      .   S
    C432   O606      1.42189      .   S
    O544   Cd32      2.40153      .   S
    O545   Cd0       2.40129      .   S
    O546   Cd1       2.40126      .   S
    O547   Cd2       2.40128      .   S
    O548   Cd32      2.35028  1_554   S
    O549   Cd0       2.34960  1_554   S
    O550   Cd1       2.34959  1_554   S
    O551   Cd2       2.34962  1_554   S
    O552   Cd3       2.40055      .   S
    O553   Cd4       2.40047      .   S
    O554   Cd5       2.40056      .   S
    O555   Cd6       2.40048      .   S
    O556   Cd3       2.37127      .   S
    O557   Cd4       2.37107      .   S
    O558   Cd5       2.37126      .   S
    O559   Cd6       2.37108      .   S
    O560   Cd7       2.39930      .   S
    O561   Cd8       2.39930      .   S
    O562   Cd9       2.39930      .   S
    O563   Cd10      2.39928      .   S
    O564   Cd7       2.37351      .   S
    O565   Cd8       2.37351      .   S
    O566   Cd9       2.37351      .   S
    O567   Cd10      2.37351      .   S
    O568   Cd11      2.40241      .   S
    O569   Cd12      2.40238      .   S
    O570   Cd13      2.40243      .   S
    O571   Cd14      2.40238      .   S
    O572   Cd11      2.37164      .   S
    O573   Cd12      2.37160      .   S
    O574   Cd13      2.37150      .   S
    O575   Cd14      2.37173      .   S
    O576   Cd15      2.40117      .   S
    O577   Cd16      2.40118      .   S
    O578   Cd17      2.40117      .   S
    O579   Cd18      2.40119      .   S
    O580   Cd15      2.36308      .   S
    O581   Cd16      2.36310      .   S
    O582   Cd17      2.36308      .   S
    O583   Cd18      2.36309      .   S
    O584   Cd19      2.39810      .   S
    O585   Cd20      2.39811      .   S
    O586   Cd21      2.39810      .   S
    O587   Cd22      2.39810      .   S
    O588   Cd19      2.37357      .   S
    O589   Cd20      2.37356      .   S
    O590   Cd21      2.37357      .   S
    O591   Cd22      2.37357      .   S
    O592   Cd19      2.39936      .   S
    O593   Cd20      2.39936      .   S
    O594   Cd21      2.39937      .   S
    O595   Cd22      2.39939      .   S
    O596   Cd19      2.37257      .   S
    O597   Cd20      2.37258      .   S
    O598   Cd21      2.37257      .   S
    O599   Cd22      2.37257      .   S
    O600   Cd15      2.40219      .   S
    O601   Cd16      2.40215      .   S
    O602   Cd17      2.40217      .   S
    O603   Cd18      2.40217      .   S
    O604   Cd15      2.36904  1_556   S
    O605   Cd16      2.37065  1_556   S
    O606   Cd17      2.36917  1_556   S
    O607   Cd18      2.36915  1_556   S
    O608   Cd11      2.40226      .   S
    O609   Cd12      2.40226      .   S
    O610   Cd13      2.40226      .   S
    O611   Cd14      2.40224      .   S
    O612   Cd11      2.37134      .   S
    O613   Cd12      2.37134      .   S
    O614   Cd13      2.37134      .   S
    O615   Cd14      2.37132      .   S
    O616   Cd7       2.39853      .   S
    O617   Cd8       2.39853      .   S
    O618   Cd9       2.39853      .   S
    O619   Cd10      2.39853      .   S
    O620   Cd7       2.37428      .   S
    O621   Cd8       2.37427      .   S
    O622   Cd9       2.37428      .   S
    O623   Cd10      2.37427      .   S
    O624   Cd3       2.40279      .   S
    O625   Cd4       2.40237      .   S
    O626   Cd5       2.40277      .   S
    O627   Cd6       2.40239      .   S
    O628   Cd3       2.37047      .   S
    O629   Cd4       2.37049      .   S
    O630   Cd5       2.37043      .   S
    O631   Cd6       2.37054      .   S
    O632   Cd32      2.40161      .   S
    O633   Cd0       2.40186      .   S
    O634   Cd1       2.40185      .   S
    O635   Cd2       2.40186      .   S
    O636   Cd32      2.36946      .   S
    O637   Cd0       2.37020      .   S
    O638   Cd1       2.37021      .   S
    O639   Cd2       2.37020      .   S
