# CIF file generated by openbabel 2.4.90, see http://openbabel.sf.net
data_I
_chemical_name_common ''
_cell_length_a 23.173
_cell_length_b 23.132
_cell_length_c 22.876
_cell_angle_alpha 89.923
_cell_angle_beta 90.038
_cell_angle_gamma 119.768
_space_group_name_H-M_alt 'P 1'
_space_group_name_Hall 'P 1'
loop_
    _symmetry_equiv_pos_as_xyz
    x,y,z
loop_
    _atom_site_label
    _atom_site_type_symbol
    _atom_site_fract_x
    _atom_site_fract_y
    _atom_site_fract_z
    _atom_site_occupancy
    N0      N    0.67836   0.17835   0.50001   1.000
    N1      N    0.17837   0.17835   0.50005   1.000
    N2      N    0.17837   0.67834   0.50006   1.000
    N3      N    0.82151   0.82149   0.00004   1.000
    N4      N    0.75610   0.01295   0.08333   1.000
    N5      N    0.99974   0.67855   0.66646   1.000
    N6      N    0.49973   0.17856   0.66646   1.000
    N7      N    0.32152   0.82149   0.00007   1.000
    N8      N    0.82151   0.32150   0.00003   1.000
    N9      N    0.17849   0.49970   0.33352   1.000
    N10     N    0.17849   0.99971   0.33352   1.000
    N11     N    0.82140   0.50033   0.83355   1.000
    N12     N    0.32141   0.50033   0.83355   1.000
    N13     N    0.82140   0.00033   0.83355   1.000
    N14     N    0.99973   0.17856   0.66646   1.000
    N15     N    0.67848   0.49971   0.33352   1.000
    N16     N    0.24383   0.75637   0.25000   1.000
    N17     N    0.32152   0.32150   0.00008   1.000
    N18     N    0.25611   0.01295   0.08333   1.000
    N19     N    0.74393   0.98700   0.58340   1.000
    N20     N    0.98689   0.24378   0.41661   1.000
    N21     N    0.67848   0.99970   0.33352   1.000
    N22     N    0.01307   0.25618   0.91659   1.000
    N23     N    0.01308   0.75617   0.91659   1.000
    N24     N    0.00039   0.32149   0.16638   1.000
    N25     N    0.50039   0.32149   0.16638   1.000
    N26     N    0.32141   0.00033   0.83355   1.000
    N27     N    0.00039   0.82148   0.16638   1.000
    N28     N    0.49973   0.67855   0.66646   1.000
    N29     N    0.74382   0.25638   0.25000   1.000
    N30     N    0.50039   0.82148   0.16638   1.000
    N31     N    0.25611   0.51295   0.08332   1.000
    N32     N    0.74393   0.48700   0.58339   1.000
    N33     N    0.24394   0.48700   0.58340   1.000
    N34     N    0.74382   0.75637   0.25000   1.000
    N35     N    0.24394   0.98700   0.58340   1.000
    N36     N    0.98689   0.74377   0.41661   1.000
    N37     N    0.67836   0.67834   0.50006   1.000
    N38     N    0.24383   0.25638   0.25000   1.000
    N39     N    0.25622   0.24366   0.75006   1.000
    N40     N    0.48689   0.74377   0.41661   1.000
    N41     N    0.51308   0.25618   0.91659   1.000
    N42     N    0.48688   0.24378   0.41661   1.000
    N43     N    0.51308   0.75617   0.91658   1.000
    N44     N    0.75621   0.24366   0.75005   1.000
    N45     N    0.75610   0.51295   0.08333   1.000
    N46     N    0.25622   0.74365   0.75006   1.000
    N47     N    0.75621   0.74365   0.75006   1.000
    Zr48    Zr   0.38079   0.61951   0.74997   1.000
    O49     O    0.35824   0.58253   0.78140   1.000
    O50     O    0.36392   0.57644   0.77473   1.000
    O51     O    0.34219   0.65809   0.74998   1.000
    O52     O    0.42234   0.66370   0.80070   1.000
    O53     O    0.42377   0.63626   0.72526   1.000
    O54     O    0.41769   0.64193   0.71854   1.000
    Zr55    Zr   0.38079   0.11952   0.74997   1.000
    O56     O    0.34219   0.15810   0.74998   1.000
    O57     O    0.42234   0.16371   0.80071   1.000
    O58     O    0.41769   0.14194   0.71854   1.000
    O59     O    0.35824   0.08254   0.78140   1.000
    O60     O    0.36392   0.07645   0.77473   1.000
    O61     O    0.42377   0.13627   0.72526   1.000
    Zr62    Zr   0.38118   0.76123   0.08330   1.000
    O63     O    0.42258   0.75829   0.03254   1.000
    O64     O    0.34245   0.68418   0.08335   1.000
    O65     O    0.36423   0.78758   0.05867   1.000
    O66     O    0.35852   0.77583   0.05202   1.000
    O67     O    0.41823   0.77585   0.11453   1.000
    O68     O    0.42423   0.78755   0.10782   1.000
    Zr69    Zr   0.61889   0.73863   0.58321   1.000
    O70     O    0.66324   0.74143   0.63404   1.000
    O71     O    0.57587   0.71236   0.60782   1.000
    O72     O    0.63578   0.71226   0.55862   1.000
    O73     O    0.64147   0.72400   0.55194   1.000
    O74     O    0.57745   0.74163   0.53250   1.000
    O75     O    0.58186   0.72408   0.61452   1.000
    Zr76    Zr   0.61928   0.88062   0.25002   1.000
    O77     O    0.58240   0.85816   0.21856   1.000
    O78     O    0.65791   0.84205   0.25000   1.000
    O79     O    0.63609   0.92366   0.27473   1.000
    O80     O    0.66350   0.92218   0.19925   1.000
    O81     O    0.64174   0.91755   0.28144   1.000
    O82     O    0.57632   0.86385   0.22524   1.000
    Zr83    Zr   0.11929   0.38063   0.25002   1.000
    O84     O    0.16351   0.42219   0.19925   1.000
    O85     O    0.15792   0.34206   0.25000   1.000
    O86     O    0.08241   0.35817   0.21856   1.000
    O87     O    0.07633   0.36386   0.22524   1.000
    O88     O    0.13610   0.42367   0.27473   1.000
    O89     O    0.14175   0.41756   0.28144   1.000
    Zr90    Zr   0.26104   0.88082   0.91684   1.000
    O91     O    0.25824   0.83646   0.86605   1.000
    O92     O    0.25809   0.92231   0.96749   1.000
    O93     O    0.28742   0.86393   0.94144   1.000
    O94     O    0.27571   0.91796   0.88550   1.000
    O95     O    0.28738   0.92397   0.89224   1.000
    O96     O    0.27576   0.85833   0.94804   1.000
    Zr97    Zr   0.11890   0.23864   0.58320   1.000
    O98     O    0.07746   0.24164   0.53249   1.000
    O99     O    0.16325   0.24144   0.63403   1.000
    O100    O    0.08187   0.22409   0.61452   1.000
    O101    O    0.13579   0.21227   0.55860   1.000
    O102    O    0.14148   0.22401   0.55193   1.000
    O103    O    0.07588   0.21237   0.60782   1.000
    Zr104   Zr   0.88078   0.11952   0.74997   1.000
    O105    O    0.84218   0.15810   0.74998   1.000
    O106    O    0.85823   0.08254   0.78140   1.000
    O107    O    0.86391   0.07645   0.77473   1.000
    O108    O    0.91768   0.14194   0.71854   1.000
    O109    O    0.92376   0.13627   0.72526   1.000
    O110    O    0.92233   0.16371   0.80071   1.000
    Zr111   Zr   0.88078   0.61951   0.74997   1.000
    O112    O    0.84218   0.65809   0.74998   1.000
    O113    O    0.85823   0.58253   0.78140   1.000
    O114    O    0.86391   0.57644   0.77473   1.000
    O115    O    0.92376   0.63626   0.72526   1.000
    O116    O    0.92234   0.66370   0.80071   1.000
    O117    O    0.91768   0.64193   0.71854   1.000
    Zr118   Zr   0.23876   0.11903   0.41682   1.000
    O119    O    0.22413   0.08195   0.38548   1.000
    O120    O    0.24179   0.07757   0.46750   1.000
    O121    O    0.24164   0.16345   0.36603   1.000
    O122    O    0.22407   0.14151   0.44815   1.000
    O123    O    0.21240   0.13590   0.44143   1.000
    O124    O    0.21244   0.07595   0.39220   1.000
    Zr125   Zr   0.61928   0.38063   0.25002   1.000
    O126    O    0.65791   0.34206   0.25000   1.000
    O127    O    0.66350   0.42219   0.19925   1.000
    O128    O    0.57632   0.36386   0.22524   1.000
    O129    O    0.64174   0.41756   0.28144   1.000
    O130    O    0.63609   0.42367   0.27473   1.000
    O131    O    0.58240   0.35817   0.21856   1.000
    Zr132   Zr   0.73875   0.11903   0.41682   1.000
    O133    O    0.74163   0.16345   0.36603   1.000
    O134    O    0.71239   0.13590   0.44141   1.000
    O135    O    0.72406   0.14152   0.44814   1.000
    O136    O    0.72412   0.08195   0.38548   1.000
    O137    O    0.71243   0.07595   0.39220   1.000
    O138    O    0.74178   0.07757   0.46750   1.000
    Zr139   Zr   0.26104   0.38083   0.91680   1.000
    O140    O    0.25824   0.33647   0.86603   1.000
    O141    O    0.25808   0.42231   0.96746   1.000
    O142    O    0.28738   0.42397   0.89222   1.000
    O143    O    0.27571   0.41797   0.88547   1.000
    O144    O    0.27576   0.35834   0.94802   1.000
    O145    O    0.28742   0.36394   0.94142   1.000
    Zr146   Zr   0.11890   0.73863   0.58321   1.000
    O147    O    0.07746   0.74163   0.53250   1.000
    O148    O    0.16325   0.74143   0.63404   1.000
    O149    O    0.13579   0.71226   0.55862   1.000
    O150    O    0.07588   0.71236   0.60782   1.000
    O151    O    0.08187   0.72408   0.61452   1.000
    O152    O    0.14148   0.72400   0.55193   1.000
    Zr153   Zr   0.61889   0.23864   0.58320   1.000
    O154    O    0.64147   0.22401   0.55191   1.000
    O155    O    0.66324   0.24144   0.63403   1.000
    O156    O    0.63578   0.21227   0.55859   1.000
    O157    O    0.58186   0.22409   0.61452   1.000
    O158    O    0.57587   0.21237   0.60782   1.000
    O159    O    0.57745   0.24164   0.53249   1.000
    Zr160   Zr   0.76103   0.88082   0.91684   1.000
    O161    O    0.75823   0.83646   0.86605   1.000
    O162    O    0.77570   0.91796   0.88550   1.000
    O163    O    0.78737   0.92397   0.89224   1.000
    O164    O    0.75808   0.92231   0.96749   1.000
    O165    O    0.77575   0.85833   0.94803   1.000
    O166    O    0.78741   0.86393   0.94143   1.000
    Zr167   Zr   0.73875   0.61902   0.41682   1.000
    O168    O    0.71243   0.57594   0.39220   1.000
    O169    O    0.74178   0.57756   0.46749   1.000
    O170    O    0.74163   0.66344   0.36603   1.000
    O171    O    0.72406   0.64150   0.44816   1.000
    O172    O    0.71239   0.63589   0.44143   1.000
    O173    O    0.72412   0.58194   0.38548   1.000
    Zr174   Zr   0.38118   0.26124   0.08330   1.000
    O175    O    0.35852   0.27584   0.05203   1.000
    O176    O    0.34245   0.18419   0.08336   1.000
    O177    O    0.36423   0.28759   0.05867   1.000
    O178    O    0.42258   0.25830   0.03254   1.000
    O179    O    0.41823   0.27586   0.11453   1.000
    O180    O    0.42423   0.28756   0.10782   1.000
    Zr181   Zr   0.76103   0.38083   0.91684   1.000
    O182    O    0.75807   0.42231   0.96749   1.000
    O183    O    0.77570   0.41797   0.88550   1.000
    O184    O    0.78737   0.42397   0.89224   1.000
    O185    O    0.75823   0.33647   0.86605   1.000
    O186    O    0.78741   0.36394   0.94143   1.000
    O187    O    0.77575   0.35834   0.94803   1.000
    Zr188   Zr   0.88117   0.76123   0.08330   1.000
    O189    O    0.84244   0.68418   0.08336   1.000
    O190    O    0.86422   0.78758   0.05866   1.000
    O191    O    0.85851   0.77583   0.05202   1.000
    O192    O    0.92257   0.75829   0.03254   1.000
    O193    O    0.92422   0.78755   0.10782   1.000
    O194    O    0.91822   0.77585   0.11453   1.000
    Zr195   Zr   0.23876   0.61902   0.41682   1.000
    O196    O    0.24179   0.57756   0.46750   1.000
    O197    O    0.21240   0.63589   0.44143   1.000
    O198    O    0.24164   0.66344   0.36603   1.000
    O199    O    0.22407   0.64150   0.44816   1.000
    O200    O    0.22413   0.58194   0.38548   1.000
    O201    O    0.21244   0.57594   0.39220   1.000
    Zr202   Zr   0.11929   0.88062   0.25002   1.000
    O203    O    0.16351   0.92218   0.19925   1.000
    O204    O    0.15792   0.84205   0.25000   1.000
    O205    O    0.08241   0.85816   0.21856   1.000
    O206    O    0.07633   0.86385   0.22524   1.000
    O207    O    0.13610   0.92366   0.27473   1.000
    O208    O    0.14175   0.91755   0.28144   1.000
    Zr209   Zr   0.88117   0.26124   0.08330   1.000
    O210    O    0.92422   0.28756   0.10782   1.000
    O211    O    0.91822   0.27586   0.11453   1.000
    O212    O    0.92257   0.25830   0.03254   1.000
    O213    O    0.84244   0.18419   0.08336   1.000
    O214    O    0.86422   0.28759   0.05866   1.000
    O215    O    0.85851   0.27584   0.05202   1.000
loop_
    _geom_bond_atom_site_label_1
    _geom_bond_atom_site_label_2
    _geom_bond_distance
    _geom_bond_site_symmetry_2
    _ccdc_geom_bond_type
    Zr48   O49       1.03756      .   S
    N12    O49       2.03755      .   S
    Zr48   O50       1.03831      .   S
    N12    O50       2.03821      .   S
    Zr48   O51       1.54564      .   S
    N46    O51       3.43530      .   S
    Zr48   O52       1.53081      .   S
    N43    O52       3.40079      .   S
    Zr48   O53       1.03849      .   S
    N28    O53       2.03845      .   S
    Zr48   O54       1.03758      .   S
    N28    O54       2.03788      .   S
    Zr55   O56       1.54564      .   S
    N39    O56       3.43530      .   S
    Zr55   O57       1.53100      .   S
    N41    O57       3.40076      .   S
    Zr55   O58       1.03758      .   S
    N6     O58       2.03790      .   S
    Zr55   O59       1.03759      .   S
    N26    O59       2.03767      .   S
    Zr55   O60       1.03835      .   S
    N26    O60       2.03831      .   S
    Zr55   O61       1.03849      .   S
    N6     O61       2.03847      .   S
    Zr62   O63       1.52973      .   S
    N43    O63       3.39798  1_556   S
    Zr62   O64       1.54722      .   S
    N31    O64       3.43843      .   S
    Zr62   O65       1.03914      .   S
    N7     O65       2.03915      .   S
    Zr62   O66       1.03779      .   S
    N7     O66       2.03891      .   S
    Zr62   O67       1.03608      .   S
    N30    O67       2.03723      .   S
    Zr62   O68       1.03814      .   S
    N30    O68       2.03686      .   S
    Zr69   O70       1.53127      .   S
    N47    O70       3.40162      .   S
    Zr69   O71       1.03851      .   S
    N28    O71       2.03804      .   S
    Zr69   O72       1.03908      .   S
    N37    O72       2.03901      .   S
    Zr69   O73       1.03774      .   S
    N37    O73       2.03872      .   S
    Zr69   O74       1.52880      .   S
    N40    O74       3.39576      .   S
    Zr69   O75       1.03735      .   S
    N28    O75       2.03765      .   S
    Zr76   O77       1.03800      .   S
    N30    O77       2.03844      .   S
    Zr76   O78       1.54618      .   S
    N34    O78       3.43644      .   S
    Zr76   O79       1.03858      .   S
    N21    O79       2.03880      .   S
    Zr76   O80       1.53088      .   S
    N4     O80       3.40065  1_545   S
    Zr76   O81       1.03781      .   S
    N21    O81       2.03810      .   S
    Zr76   O82       1.03867      .   S
    N30    O82       2.03919      .   S
    Zr83   O84       1.53088      .   S
    N31    O84       3.40064      .   S
    Zr83   O85       1.54618      .   S
    N38    O85       3.43645      .   S
    Zr83   O86       1.03803      .   S
    N24    O86       2.03857      .   S
    Zr83   O87       1.03871      .   S
    N24    O87       2.03931      .   S
    Zr83   O88       1.03855      .   S
    N9     O88       2.03873      .   S
    Zr83   O89       1.03779      .   S
    N9     O89       2.03800      .   S
    Zr90   O91       1.53105      .   S
    N46    O91       3.40107      .   S
    Zr90   O92       1.52858      .   S
    N18    O92       3.39568  1_544   S
    Zr90   O93       1.03868      .   S
    N7     O93       2.03777  1_554   S
    Zr90   O94       1.03753      .   S
    N26    O94       2.03855  1_545   S
    Zr90   O95       1.03893      .   S
    N26    O95       2.03872  1_545   S
    Zr90   O96       1.03502      .   S
    N7     O96       2.03959  1_554   S
    Zr97   O98       1.52877      .   S
    N20    O98       3.39575  1_655   S
    Zr97   O99       1.53133      .   S
    N39    O99       3.40173      .   S
    Zr97   O100      1.03745      .   S
    N14    O100      2.03786  1_655   S
    Zr97   O101      1.03916      .   S
    N1     O101      2.03886      .   S
    Zr97   O102      1.03772      .   S
    N1     O102      2.03870      .   S
    Zr97   O103      1.03859      .   S
    N14    O103      2.03825  1_655   S
    Zr104  O105      1.54563      .   S
    N44    O105      3.43529      .   S
    Zr104  O106      1.03759      .   S
    N13    O106      2.03767      .   S
    Zr104  O107      1.03835      .   S
    N13    O107      2.03831      .   S
    Zr104  O108      1.03761      .   S
    N14    O108      2.03802      .   S
    Zr104  O109      1.03853      .   S
    N14    O109      2.03856      .   S
    Zr104  O110      1.53101      .   S
    N22    O110      3.40081  1_455   S
    Zr111  O112      1.54563      .   S
    N47    O112      3.43529      .   S
    Zr111  O113      1.03757      .   S
    N11    O113      2.03756      .   S
    Zr111  O114      1.03831      .   S
    N11    O114      2.03822      .   S
    Zr111  O115      1.03854      .   S
    N5     O115      2.03857      .   S
    Zr111  O116      1.53101      .   S
    N23    O116      3.40081  1_455   S
    Zr111  O117      1.03761      .   S
    N5     O117      2.03802      .   S
    Zr118  O119      1.03789      .   S
    N10    O119      2.03890  1_565   S
    Zr118  O120      1.52723      .   S
    N35    O120      3.39266  1_565   S
    Zr118  O121      1.52950      .   S
    N38    O121      3.39777      .   S
    Zr118  O122      1.03796      .   S
    N1     O122      2.03897      .   S
    Zr118  O123      1.03925      .   S
    N1     O123      2.03926      .   S
    Zr118  O124      1.03914      .   S
    N10    O124      2.03924  1_565   S
    Zr125  O126      1.54618      .   S
    N29    O126      3.43645      .   S
    Zr125  O127      1.53086      .   S
    N45    O127      3.40059      .   S
    Zr125  O128      1.03867      .   S
    N25    O128      2.03920      .   S
    Zr125  O129      1.03779      .   S
    N15    O129      2.03800      .   S
    Zr125  O130      1.03855      .   S
    N15    O130      2.03872      .   S
    Zr125  O131      1.03800      .   S
    N25    O131      2.03845      .   S
    Zr132  O133      1.52950      .   S
    N29    O133      3.39777      .   S
    Zr132  O134      1.03910      .   S
    N0     O134      2.03872      .   S
    Zr132  O135      1.03776      .   S
    N0     O135      2.03851      .   S
    Zr132  O136      1.03789      .   S
    N21    O136      2.03890  1_565   S
    Zr132  O137      1.03915      .   S
    N21    O137      2.03925  1_565   S
    Zr132  O138      1.52723      .   S
    N19    O138      3.39265  1_565   S
    Zr139  O140      1.53078      .   S
    N39    O140      3.40062      .   S
    Zr139  O141      1.52880      .   S
    N31    O141      3.39599  1_554   S
    Zr139  O142      1.03872      .   S
    N12    O142      2.03824      .   S
    Zr139  O143      1.03726      .   S
    N12    O143      2.03811      .   S
    Zr139  O144      1.03531      .   S
    N17    O144      2.04006  1_554   S
    Zr139  O145      1.03891      .   S
    N17    O145      2.03830  1_554   S
    Zr146  O147      1.52884      .   S
    N36    O147      3.39587  1_655   S
    Zr146  O148      1.53126      .   S
    N46    O148      3.40161      .   S
    Zr146  O149      1.03908      .   S
    N2     O149      2.03903      .   S
    Zr146  O150      1.03854      .   S
    N5     O150      2.03815  1_655   S
    Zr146  O151      1.03739      .   S
    N5     O151      2.03777  1_655   S
    Zr146  O152      1.03774      .   S
    N2     O152      2.03875      .   S
    Zr153  O154      1.03790      .   S
    N0     O154      2.03917      .   S
    Zr153  O155      1.53127      .   S
    N44    O155      3.40155      .   S
    Zr153  O156      1.03931      .   S
    N0     O156      2.03939      .   S
    Zr153  O157      1.03740      .   S
    N6     O157      2.03772      .   S
    Zr153  O158      1.03855      .   S
    N6     O158      2.03811      .   S
    Zr153  O159      1.52874      .   S
    N42    O159      3.39566      .   S
    Zr160  O161      1.53104      .   S
    N47    O161      3.40108      .   S
    Zr160  O162      1.03754      .   S
    N13    O162      2.03856  1_545   S
    Zr160  O163      1.03894      .   S
    N13    O163      2.03873  1_545   S
    Zr160  O164      1.52858      .   S
    N4     O164      3.39567  1_544   S
    Zr160  O165      1.03490      .   S
    N3     O165      2.03928  1_554   S
    Zr160  O166      1.03859      .   S
    N3     O166      2.03742  1_554   S
    Zr167  O168      1.03909      .   S
    N15    O168      2.03909      .   S
    Zr167  O169      1.52715      .   S
    N32    O169      3.39239      .   S
    Zr167  O170      1.52950      .   S
    N34    O170      3.39776      .   S
    Zr167  O171      1.03800      .   S
    N37    O171      2.03902      .   S
    Zr167  O172      1.03927      .   S
    N37    O172      2.03933      .   S
    Zr167  O173      1.03784      .   S
    N15    O173      2.03876      .   S
    Zr174  O175      1.03756      .   S
    N17    O175      2.03892      .   S
    Zr174  O176      1.54726      .   S
    N18    O176      3.43859      .   S
    Zr174  O177      1.03910      .   S
    N17    O177      2.03900      .   S
    Zr174  O178      1.52968      .   S
    N41    O178      3.39784  1_556   S
    Zr174  O179      1.03608      .   S
    N25    O179      2.03722      .   S
    Zr174  O180      1.03814      .   S
    N25    O180      2.03686      .   S
    Zr181  O182      1.52855      .   S
    N45    O182      3.39558  1_554   S
    Zr181  O183      1.03749      .   S
    N11    O183      2.03843      .   S
    Zr181  O184      1.03890      .   S
    N11    O184      2.03861      .   S
    Zr181  O185      1.53110      .   S
    N44    O185      3.40124      .   S
    Zr181  O186      1.03855      .   S
    N8     O186      2.03731  1_554   S
    Zr181  O187      1.03486      .   S
    N8     O187      2.03918  1_554   S
    Zr188  O189      1.54721      .   S
    N45    O189      3.43842      .   S
    Zr188  O190      1.03924      .   S
    N3     O190      2.03950      .   S
    Zr188  O191      1.03775      .   S
    N3     O191      2.03936      .   S
    Zr188  O192      1.52972      .   S
    N23    O192      3.39794  1_456   S
    Zr188  O193      1.03819      .   S
    N27    O193      2.03700  1_455   S
    Zr188  O194      1.03613      .   S
    N27    O194      2.03736  1_455   S
    Zr195  O196      1.52721      .   S
    N33    O196      3.39258      .   S
    Zr195  O197      1.03926      .   S
    N2     O197      2.03930      .   S
    Zr195  O198      1.52950      .   S
    N16    O198      3.39776      .   S
    Zr195  O199      1.03797      .   S
    N2     O199      2.03901      .   S
    Zr195  O200      1.03784      .   S
    N9     O200      2.03876      .   S
    Zr195  O201      1.03910      .   S
    N9     O201      2.03910      .   S
    Zr202  O203      1.53087      .   S
    N18    O203      3.40063  1_545   S
    Zr202  O204      1.54618      .   S
    N16    O204      3.43644      .   S
    Zr202  O205      1.03803      .   S
    N27    O205      2.03857      .   S
    Zr202  O206      1.03871      .   S
    N27    O206      2.03930      .   S
    Zr202  O207      1.03859      .   S
    N10    O207      2.03880      .   S
    Zr202  O208      1.03781      .   S
    N10    O208      2.03810      .   S
    Zr209  O210      1.03818      .   S
    N24    O210      2.03699  1_455   S
    Zr209  O211      1.03612      .   S
    N24    O211      2.03735  1_455   S
    Zr209  O212      1.52972      .   S
    N22    O212      3.39794  1_456   S
    Zr209  O213      1.54726      .   S
    N4     O213      3.43859      .   S
    Zr209  O214      1.03927      .   S
    N8     O214      2.03962      .   S
    Zr209  O215      1.03779      .   S
    N8     O215      2.03946      .   S
