# CIF file generated by openbabel 2.4.90, see http://openbabel.sf.net
data_I
_chemical_name_common ''
_cell_length_a 13.075
_cell_length_b 13.975
_cell_length_c 16.924
_cell_angle_alpha 90.001
_cell_angle_beta 90
_cell_angle_gamma 89.9
_space_group_name_H-M_alt 'P 1'
_space_group_name_Hall 'P 1'
loop_
    _symmetry_equiv_pos_as_xyz
    x,y,z
loop_
    _atom_site_label
    _atom_site_type_symbol
    _atom_site_fract_x
    _atom_site_fract_y
    _atom_site_fract_z
    _atom_site_occupancy
    Zr0     Zr   0.97764   0.40768   0.57044   1.000
    Zr1     Zr   0.92844   0.48241   0.90369   1.000
    Zr2     Zr   0.02236   0.09231   0.07042   1.000
    Zr3     Zr   0.07154   0.01758   0.40368   1.000
    Zr4     Zr   0.47622   0.59223   0.92900   1.000
    Zr5     Zr   0.42734   0.51938   0.59612   1.000
    Zr6     Zr   0.52377   0.90777   0.42947   1.000
    Zr7     Zr   0.57264   0.98063   0.09611   1.000
    Zr8     Zr   0.02236   0.59230   0.42958   1.000
    Zr9     Zr   0.07156   0.51758   0.09632   1.000
    Zr10    Zr   0.97765   0.90768   0.92959   1.000
    Zr11    Zr   0.92844   0.98238   0.59635   1.000
    Zr12    Zr   0.52378   0.40778   0.07052   1.000
    Zr13    Zr   0.57265   0.48062   0.40391   1.000
    Zr14    Zr   0.47621   0.09222   0.57051   1.000
    Zr15    Zr   0.42737   0.01938   0.90389   1.000
    C16     C    0.55469   0.96529   0.26910   1.000
    C17     C    0.94550   0.46617   0.73065   1.000
    C18     C    0.44530   0.03470   0.73089   1.000
    C19     C    0.05451   0.53379   0.26935   1.000
    C20     C    0.55472   0.46530   0.23090   1.000
    C21     C    0.05450   0.03381   0.23064   1.000
    C22     C    0.94550   0.96614   0.76937   1.000
    C23     C    0.44530   0.53471   0.76911   1.000
    C24     C    0.52020   0.89036   0.25200   1.000
    O25     O    0.51790   0.88693   0.31160   1.000
    O26     O    0.53181   0.91550   0.25773   1.000
    O27     O    0.53352   0.91430   0.19634   1.000
    C28     C    0.58778   0.03806   0.28570   1.000
    O29     O    0.57028   0.00415   0.33862   1.000
    O30     O    0.57687   0.01400   0.28021   1.000
    C31     C    0.98233   0.28533   0.99705   1.000
    O32     O    0.99693   0.22475   0.02663   1.000
    O33     O    0.01239   0.37050   0.03709   1.000
    O34     O    0.96720   0.35754   0.96996   1.000
    C35     C    0.70600   0.52020   0.91783   1.000
    O36     O    0.64160   0.47421   0.97423   1.000
    O37     O    0.62554   0.54078   0.92762   1.000
    O38     O    0.77875   0.50107   0.91626   1.000
    C39     C    0.20570   0.98101   0.91800   1.000
    O40     O    0.27819   0.00039   0.91641   1.000
    O41     O    0.12579   0.95998   0.92795   1.000
    O42     O    0.14098   0.02660   0.97441   1.000
    C43     C    0.48402   0.71464   0.50258   1.000
    O44     O    0.49874   0.77520   0.47302   1.000
    O45     O    0.51389   0.62893   0.46274   1.000
    O46     O    0.46797   0.64292   0.52970   1.000
    C47     C    0.79433   0.51897   0.41802   1.000
    O48     O    0.85903   0.47339   0.47443   1.000
    O49     O    0.87423   0.53999   0.42798   1.000
    O50     O    0.72182   0.49960   0.41642   1.000
    C51     C    0.29400   0.47980   0.08217   1.000
    O52     O    0.22125   0.49892   0.08372   1.000
    O53     O    0.35840   0.52579   0.02565   1.000
    O54     O    0.37446   0.45922   0.07227   1.000
    C55     C    0.01764   0.21465   0.49708   1.000
    O56     O    0.98759   0.12948   0.53712   1.000
    O57     O    0.00305   0.27523   0.52673   1.000
    O58     O    0.03278   0.14244   0.46996   1.000
    C59     C    0.48407   0.21466   0.99742   1.000
    O60     O    0.46801   0.14293   0.97029   1.000
    O61     O    0.51390   0.12894   0.03726   1.000
    O62     O    0.49877   0.27522   0.02697   1.000
    C63     C    0.51589   0.28534   0.49739   1.000
    O64     O    0.53197   0.35707   0.47029   1.000
    O65     O    0.50119   0.22478   0.52695   1.000
    O66     O    0.48605   0.37106   0.53725   1.000
    C67     C    0.97853   0.39059   0.74789   1.000
    O68     O    0.96741   0.41596   0.74212   1.000
    O69     O    0.96572   0.41493   0.80352   1.000
    O70     O    0.98146   0.38701   0.68832   1.000
    C71     C    0.91383   0.53948   0.71383   1.000
    O72     O    0.92427   0.51525   0.71940   1.000
    O73     O    0.93133   0.50504   0.66102   1.000
    C74     C    0.20566   0.48105   0.58203   1.000
    O75     O    0.12576   0.46001   0.57207   1.000
    O76     O    0.27816   0.50042   0.58362   1.000
    O77     O    0.14096   0.52662   0.52562   1.000
    C78     C    0.98232   0.78532   0.50292   1.000
    O79     O    0.99692   0.72474   0.47328   1.000
    O80     O    0.96719   0.85752   0.53004   1.000
    O81     O    0.01237   0.87049   0.46289   1.000
    C82     C    0.47978   0.60964   0.75201   1.000
    O83     O    0.46818   0.58450   0.75775   1.000
    O84     O    0.46646   0.58570   0.69635   1.000
    O85     O    0.48209   0.61307   0.81149   1.000
    C86     C    0.08617   0.96050   0.21380   1.000
    O87     O    0.07573   0.98473   0.21938   1.000
    O88     O    0.06867   0.99494   0.16099   1.000
    C89     C    0.51593   0.78535   0.00259   1.000
    O90     O    0.53199   0.85708   0.02971   1.000
    O91     O    0.48610   0.87107   0.96274   1.000
    O92     O    0.50123   0.72479   0.97291   1.000
    C93     C    0.79431   0.01899   0.08197   1.000
    O94     O    0.85902   0.97340   0.02556   1.000
    O95     O    0.87422   0.04001   0.07201   1.000
    O96     O    0.72181   0.99962   0.08358   1.000
    C97     C    0.29397   0.97976   0.41785   1.000
    O98     O    0.22122   0.99890   0.41629   1.000
    O99     O    0.35838   0.02577   0.47423   1.000
    O100    O    0.37444   0.95919   0.42775   1.000
    C101    C    0.91382   0.03945   0.78616   1.000
    O102    O    0.93132   0.00502   0.83899   1.000
    O103    O    0.92426   0.01522   0.78060   1.000
    C104    C    0.97854   0.89056   0.75210   1.000
    O105    O    0.96573   0.91490   0.69648   1.000
    O106    O    0.96741   0.91593   0.75789   1.000
    O107    O    0.98148   0.88699   0.81167   1.000
    C108    C    0.47979   0.10964   0.74799   1.000
    O109    O    0.46647   0.08570   0.80365   1.000
    O110    O    0.46818   0.08449   0.74226   1.000
    O111    O    0.48209   0.11307   0.68839   1.000
    C112    C    0.41221   0.96193   0.71430   1.000
    O113    O    0.42312   0.98600   0.71979   1.000
    O114    O    0.42971   0.99584   0.66138   1.000
    C115    C    0.01767   0.71465   0.00294   1.000
    O116    O    0.00307   0.77524   0.97330   1.000
    O117    O    0.03281   0.64245   0.03003   1.000
    O118    O    0.98761   0.62949   0.96291   1.000
    C119    C    0.70599   0.02018   0.58214   1.000
    O120    O    0.64159   0.97419   0.52576   1.000
    O121    O    0.62553   0.04077   0.57224   1.000
    O122    O    0.77874   0.00104   0.58372   1.000
    C123    C    0.01852   0.10940   0.24789   1.000
    O124    O    0.03112   0.08403   0.24210   1.000
    O125    O    0.03280   0.08506   0.30352   1.000
    O126    O    0.01485   0.11298   0.18831   1.000
    C127    C    0.52024   0.39036   0.24800   1.000
    O128    O    0.53185   0.41551   0.24227   1.000
    O129    O    0.53355   0.41430   0.30367   1.000
    O130    O    0.51792   0.38693   0.18840   1.000
    C131    C    0.41222   0.46194   0.78571   1.000
    O132    O    0.42313   0.48601   0.78022   1.000
    O133    O    0.42971   0.49586   0.83851   1.000
    C134    C    0.58780   0.53806   0.21431   1.000
    O135    O    0.57030   0.50415   0.16139   1.000
    O136    O    0.57689   0.51400   0.21980   1.000
    C137    C    0.01853   0.60937   0.25211   1.000
    O138    O    0.03282   0.58504   0.19648   1.000
    O139    O    0.01486   0.61296   0.31169   1.000
    O140    O    0.03113   0.58400   0.25789   1.000
    C141    C    0.08617   0.46048   0.28620   1.000
    O142    O    0.06867   0.49493   0.33901   1.000
    O143    O    0.07573   0.48471   0.28061   1.000
loop_
    _geom_bond_atom_site_label_1
    _geom_bond_atom_site_label_2
    _geom_bond_distance
    _geom_bond_site_symmetry_2
    _ccdc_geom_bond_type
    C24    O25       1.01022      .   S
    Zr6    O25       2.01750      .   S
    C24    O26       0.39514      .   S
    C16    O26       0.78189      .   S
    C24    O27       1.01485      .   S
    Zr7    O27       1.99997      .   S
    C28    O29       1.03897      .   S
    Zr6    O29       2.13335  1_565   S
    C28    O30       0.37709      .   S
    C16    O30       0.76384  1_565   S
    C31    O32       1.00166  1_556   S
    Zr2    O32       2.02073  1_455   S
    C31    O33       1.42545  1_656   S
    Zr9    O33       2.41531      .   S
    C31    O34       1.12554      .   S
    Zr1    O34       2.13470      .   S
    C35    O36       1.42659      .   S
    Zr12   O36       2.42811  1_554   S
    C35    O37       1.10270      .   S
    Zr4    O37       2.07944      .   S
    C35    O38       0.98798      .   S
    Zr1    O38       1.98547      .   S
    C39    O40       0.98668  1_565   S
    Zr15   O40       1.98026      .   S
    C39    O41       1.09876      .   S
    Zr10   O41       2.07167  1_655   S
    C39    O42       1.42518  1_565   S
    Zr2    O42       2.42574  1_554   S
    C43    O44       1.00208      .   S
    Zr6    O44       2.02102      .   S
    C43    O45       1.42834      .   S
    Zr13   O45       2.42317      .   S
    C43    O46       1.12258      .   S
    Zr5    O46       2.12830      .   S
    C47    O48       1.42515      .   S
    Zr0    O48       2.42558      .   S
    C47    O49       1.09873      .   S
    Zr8    O49       2.07157  1_455   S
    C47    O50       0.98671      .   S
    Zr13   O50       1.98027      .   S
    C51    O52       0.98797      .   S
    Zr9    O52       1.98554      .   S
    C51    O53       1.42790      .   S
    Zr4    O53       2.43227  1_556   S
    C51    O54       1.10299      .   S
    Zr12   O54       2.07951      .   S
    C55    O56       1.42547  1_455   S
    Zr11   O56       2.41547  1_565   S
    C55    O57       1.00220      .   S
    Zr0    O57       2.02022  1_655   S
    C55    O58       1.12574      .   S
    Zr3    O58       2.13466      .   S
    C59    O60       1.12260      .   S
    Zr15   O60       2.12833      .   S
    C59    O61       1.42830  1_556   S
    Zr7    O61       2.42323  1_565   S
    C59    O62       1.00200  1_556   S
    Zr12   O62       2.02089      .   S
    C63    O64       1.12255      .   S
    Zr13   O64       2.12821      .   S
    C63    O65       1.00209      .   S
    Zr14   O65       2.02092      .   S
    C63    O66       1.42844      .   S
    Zr5    O66       2.42333      .   S
    C67    O68       0.39524      .   S
    C17    O68       0.78191      .   S
    C67    O69       1.01477      .   S
    Zr1    O69       1.99979      .   S
    C67    O70       1.01016      .   S
    Zr0    O70       2.01644      .   S
    C71    O72       0.37688      .   S
    C17    O72       0.76354      .   S
    C71    O73       1.04042      .   S
    Zr0    O73       2.13657      .   S
    C74    O75       1.09875      .   S
    Zr0    O75       2.07159  1_655   S
    C74    O76       0.98667      .   S
    Zr5    O76       1.98029      .   S
    C74    O77       1.42513      .   S
    Zr8    O77       2.42563      .   S
    C78    O79       1.00213      .   S
    Zr8    O79       2.02014  1_455   S
    C78    O80       1.12567      .   S
    Zr11   O80       2.13487      .   S
    C78    O81       1.42541  1_655   S
    Zr3    O81       2.41535  1_545   S
    C82    O83       0.39513      .   S
    C23    O83       0.78186      .   S
    C82    O84       1.01483      .   S
    Zr5    O84       1.99991      .   S
    C82    O85       1.00819      .   S
    Zr4    O85       2.01150      .   S
    C86    O87       0.37690      .   S
    C21    O87       0.76359  1_545   S
    C86    O88       1.04043      .   S
    Zr2    O88       2.13655  1_545   S
    C89    O90       1.12260      .   S
    Zr7    O90       2.12836      .   S
    C89    O91       1.42833  1_554   S
    Zr15   O91       2.42328  1_545   S
    C89    O92       1.00303  1_554   S
    Zr4    O92       2.02320      .   S
    C93    O94       1.42530  1_545   S
    Zr10   O94       2.42526  1_556   S
    C93    O95       1.09877      .   S
    Zr2    O95       2.07164  1_455   S
    C93    O96       0.98668  1_545   S
    Zr7    O96       1.98027      .   S
    C97    O98       0.98798      .   S
    Zr3    O98       1.98549  1_545   S
    C97    O99       1.42645  1_565   S
    Zr14   O99       2.42825      .   S
    C97    O100      1.10301      .   S
    Zr6    O100      2.07955      .   S
    C101   O102      1.04060      .   S
    Zr10   O102      2.13675  1_565   S
    C101   O103      0.37682      .   S
    C22    O103      0.76350  1_565   S
    C104   O105      1.01461      .   S
    Zr11   O105      1.99935      .   S
    C104   O106      0.39531      .   S
    C22    O106      0.78199      .   S
    C104   O107      1.01017      .   S
    Zr10   O107      2.01708      .   S
    C108   O109      1.01485      .   S
    Zr15   O109      1.99997      .   S
    C108   O110      0.39514      .   S
    C18    O110      0.78189      .   S
    C108   O111      1.01026      .   S
    Zr14   O111      2.01765      .   S
    C112   O113      0.37709      .   S
    C18    O113      0.76383  1_545   S
    C112   O114      1.03902      .   S
    Zr14   O114      2.13346  1_545   S
    C115   O116      1.00216  1_554   S
    Zr10   O116      2.02024  1_655   S
    C115   O117      1.12561      .   S
    Zr9    O117      2.13478      .   S
    C115   O118      1.42533  1_454   S
    Zr1    O118      2.41525      .   S
    C119   O120      1.42642  1_545   S
    Zr6    O120      2.42800      .   S
    C119   O121      1.10298      .   S
    Zr14   O121      2.07953      .   S
    C119   O122      0.98801      .   S
    Zr11   O122      1.98564  1_565   S
    C123   O124      0.40275      .   S
    C21    O124      0.78921      .   S
    C123   O125      1.01822      .   S
    Zr3    O125      2.00435      .   S
    C123   O126      1.01071      .   S
    Zr2    O126      2.01833      .   S
    C127   O128      0.39513      .   S
    C20    O128      0.78186      .   S
    C127   O129      1.01488      .   S
    Zr13   O129      2.00002      .   S
    C127   O130      1.01026      .   S
    Zr12   O130      2.01764      .   S
    C131   O132      0.37708      .   S
    C23    O132      0.76382      .   S
    C131   O133      1.03719      .   S
    Zr4    O133      2.12882      .   S
    C134   O135      1.03903      .   S
    Zr12   O135      2.13344      .   S
    C134   O136      0.37707      .   S
    C20    O136      0.76380      .   S
    C137   O138      1.01818      .   S
    Zr9    O138      2.00428      .   S
    C137   O139      1.01069      .   S
    Zr8    O139      2.01829      .   S
    C137   O140      0.40273      .   S
    C19    O140      0.78913      .   S
    C141   O142      1.04051      .   S
    Zr8    O142      2.13651      .   S
    C141   O143      0.37694      .   S
    C19    O143      0.76357      .   S
