# CIF file generated by openbabel 2.4.90, see http://openbabel.sf.net
data_I
_chemical_name_common ''
_cell_length_a 13.971
_cell_length_b 15.661
_cell_length_c 19.606
_cell_angle_alpha 89.992
_cell_angle_beta 90.005
_cell_angle_gamma 90.014
_space_group_name_H-M_alt 'P 1'
_space_group_name_Hall 'P 1'
loop_
    _symmetry_equiv_pos_as_xyz
    x,y,z
loop_
    _atom_site_label
    _atom_site_type_symbol
    _atom_site_fract_x
    _atom_site_fract_y
    _atom_site_fract_z
    _atom_site_occupancy
    Zr0     Zr   0.69089   0.86001   0.02850   1.000
    Zr1     Zr   0.80967   0.14076   0.52817   1.000
    Zr2     Zr   0.30922   0.36028   0.47142   1.000
    Zr3     Zr   0.19068   0.63984   0.97150   1.000
    N4      N    0.80596   0.75412   0.34915   1.000
    O5      O    0.75142   0.79680   0.21786   1.000
    O6      O    0.81796   0.91882   0.41857   1.000
    O7      O    0.82299   0.91225   0.44634   1.000
    N8      N    0.19399   0.25340   0.15079   1.000
    O9      O    0.24859   0.29659   0.28208   1.000
    O10     O    0.18207   0.41813   0.08131   1.000
    O11     O    0.17706   0.41177   0.05355   1.000
    N12     N    0.07668   0.30159   0.59042   1.000
    O13     O    0.15061   0.33680   0.53692   1.000
    O14     O    0.94689   0.25525   0.54403   1.000
    O15     O    0.98020   0.23940   0.55361   1.000
    N16     N    0.92353   0.80090   0.90949   1.000
    O17     O    0.84960   0.83619   0.96300   1.000
    O18     O    0.05322   0.75402   0.95584   1.000
    O19     O    0.01984   0.73836   0.94622   1.000
    N20     N    0.57609   0.19925   0.40938   1.000
    O21     O    0.65043   0.16416   0.46283   1.000
    O22     O    0.44660   0.24609   0.45572   1.000
    O23     O    0.47996   0.26181   0.44611   1.000
    N24     N    0.69397   0.24595   0.84891   1.000
    O25     O    0.74878   0.20345   0.71761   1.000
    O26     O    0.68220   0.08150   0.91848   1.000
    O27     O    0.67714   0.08780   0.94625   1.000
    N28     N    0.30602   0.74599   0.65081   1.000
    O29     O    0.25130   0.70315   0.78213   1.000
    O30     O    0.31788   0.58163   0.58131   1.000
    O31     O    0.32291   0.58796   0.55357   1.000
    N32     N    0.42384   0.69892   0.09059   1.000
    O33     O    0.34963   0.66362   0.03707   1.000
    O34     O    0.55340   0.74577   0.04434   1.000
    O35     O    0.52001   0.76149   0.05385   1.000
loop_
    _geom_bond_atom_site_label_1
    _geom_bond_atom_site_label_2
    _geom_bond_distance
    _geom_bond_site_symmetry_2
    _ccdc_geom_bond_type
    N4     O5        2.76625      .   S
    Zr0    O5        3.93419      .   S
    N4     O6        2.92143      .   S
    Zr1    O6        4.08830  1_545   S
    N4     O7        3.13390      .   S
    Zr1    O7        3.92659  1_545   S
    N8     O9        2.76855      .   S
    Zr2    O9        3.93614      .   S
    N8     O10       2.92205      .   S
    Zr3    O10       4.08706  1_556   S
    N8     O11       3.13714      .   S
    Zr3    O11       3.92175  1_556   S
    N12    O13       1.57187      .   S
    Zr2    O13       2.58736      .   S
    N12    O14       2.15436  1_455   S
    Zr1    O14       2.64295      .   S
    N12    O15       1.81269  1_455   S
    Zr1    O15       2.88258      .   S
    N16    O17       1.57274      .   S
    Zr0    O17       2.58953  1_554   S
    N16    O18       2.15587  1_655   S
    Zr3    O18       2.64227      .   S
    N16    O19       1.81341  1_655   S
    Zr3    O19       2.88526      .   S
    N20    O21       1.57449      .   S
    Zr1    O21       2.59306      .   S
    N20    O22       2.15353      .   S
    Zr2    O22       2.64177      .   S
    N20    O23       1.81212      .   S
    Zr2    O23       2.88385      .   S
    N24    O25       2.76718      .   S
    Zr1    O25       3.93495      .   S
    N24    O26       2.91879      .   S
    Zr0    O26       4.08635  1_564   S
    N24    O27       3.13533      .   S
    Zr0    O27       3.91958  1_564   S
    N28    O29       2.76826      .   S
    Zr3    O29       3.93493      .   S
    N28    O30       2.91751      .   S
    Zr2    O30       4.08352      .   S
    N28    O31       3.13328      .   S
    Zr2    O31       3.91747      .   S
    N32    O33       1.57525      .   S
    Zr3    O33       2.59266  1_556   S
    N32    O34       2.15326      .   S
    Zr0    O34       2.64293      .   S
    N32    O35       1.81208      .   S
    Zr0    O35       2.88536      .   S
