# CIF file generated by openbabel 2.4.90, see http://openbabel.sf.net
data_I
_chemical_name_common ''
_cell_length_a 13.971
_cell_length_b 15.661
_cell_length_c 19.606
_cell_angle_alpha 89.992
_cell_angle_beta 90.005
_cell_angle_gamma 90.014
_space_group_name_H-M_alt 'P 1'
_space_group_name_Hall 'P 1'
loop_
    _symmetry_equiv_pos_as_xyz
    x,y,z
loop_
    _atom_site_label
    _atom_site_type_symbol
    _atom_site_fract_x
    _atom_site_fract_y
    _atom_site_fract_z
    _atom_site_occupancy
    N0      N    0.80596   0.75412   0.34915   1.000
    N1      N    0.19399   0.25340   0.15079   1.000
    N2      N    0.07668   0.30159   0.59042   1.000
    N3      N    0.92353   0.80090   0.90949   1.000
    N4      N    0.57609   0.19925   0.40938   1.000
    N5      N    0.69397   0.24595   0.84891   1.000
    N6      N    0.30602   0.74599   0.65081   1.000
    N7      N    0.42384   0.69892   0.09059   1.000
    Zr8     Zr   0.69089   0.86001   0.02850   1.000
    O9      O    0.77024   0.84810   0.99575   1.000
    O10     O    0.72116   0.82840   0.12318   1.000
    O11     O    0.68402   0.97390   0.98737   1.000
    O12     O    0.68654   0.97075   0.97349   1.000
    O13     O    0.60545   0.81075   0.04117   1.000
    O14     O    0.62215   0.80289   0.03642   1.000
    Zr15    Zr   0.80967   0.14076   0.52817   1.000
    O16     O    0.81381   0.02979   0.47337   1.000
    O17     O    0.81633   0.02651   0.48725   1.000
    O18     O    0.89493   0.19008   0.54089   1.000
    O19     O    0.87828   0.19801   0.53610   1.000
    O20     O    0.73005   0.15246   0.49550   1.000
    O21     O    0.77922   0.17211   0.62289   1.000
    Zr22    Zr   0.30922   0.36028   0.47142   1.000
    O23     O    0.27890   0.32843   0.37675   1.000
    O24     O    0.31606   0.47412   0.51250   1.000
    O25     O    0.31355   0.47095   0.52637   1.000
    O26     O    0.22991   0.34854   0.50417   1.000
    O27     O    0.39459   0.31105   0.45877   1.000
    O28     O    0.37791   0.30319   0.46357   1.000
    Zr29    Zr   0.19068   0.63984   0.97150   1.000
    O30     O    0.22099   0.67150   0.87682   1.000
    O31     O    0.10526   0.68910   0.95886   1.000
    O32     O    0.12195   0.69693   0.96367   1.000
    O33     O    0.18387   0.52581   0.01252   1.000
    O34     O    0.18638   0.52898   0.02640   1.000
    O35     O    0.27016   0.65173   0.00428   1.000
loop_
    _geom_bond_atom_site_label_1
    _geom_bond_atom_site_label_2
    _geom_bond_distance
    _geom_bond_site_symmetry_2
    _ccdc_geom_bond_type
    Zr8    O9        1.29476  1_554   S
    N3     O9        2.82743      .   S
    Zr8    O10       1.96709      .   S
    N0     O10       4.73108      .   S
    Zr8    O11       1.95979  1_554   S
    N5     O11       5.05348  1_545   S
    Zr8    O12       2.04317  1_554   S
    N5     O12       4.95463  1_545   S
    Zr8    O13       1.44268      .   S
    N7     O13       3.23130      .   S
    Zr8    O14       1.32147      .   S
    N7     O14       3.38420      .   S
    Zr15   O16       2.04415      .   S
    N0     O16       4.95837  1_565   S
    Zr15   O17       1.96329      .   S
    N0     O17       5.05497  1_565   S
    Zr15   O18       1.44129      .   S
    N2     O18       3.23080  1_455   S
    Zr15   O19       1.32147      .   S
    N2     O19       3.38331  1_455   S
    Zr15   O20       1.29653      .   S
    N4     O20       2.83096      .   S
    Zr15   O21       1.96747      .   S
    N5     O21       4.73239      .   S
    Zr22   O23       1.96807      .   S
    N1     O23       4.73437      .   S
    Zr22   O24       1.95873      .   S
    N6     O24       5.05038      .   S
    Zr22   O25       2.04176      .   S
    N6     O25       4.95190      .   S
    Zr22   O26       1.29368      .   S
    N2     O26       2.82534      .   S
    Zr22   O27       1.44192      .   S
    N4     O27       3.23058      .   S
    Zr22   O28       1.32089      .   S
    N4     O28       3.38349      .   S
    Zr29   O30       1.96747      .   S
    N6     O30       4.73343      .   S
    Zr29   O31       1.44263      .   S
    N3     O31       3.23264  1_655   S
    Zr29   O32       1.32113      .   S
    N3     O32       3.38606  1_655   S
    Zr29   O33       1.96087  1_556   S
    N1     O33       5.05633      .   S
    Zr29   O34       2.04353  1_556   S
    N1     O34       4.95821      .   S
    Zr29   O35       1.29633  1_556   S
    N7     O35       2.83170      .   S
