# CIF file generated by openbabel 2.4.90, see http://openbabel.sf.net
data_I
_chemical_name_common ''
_cell_length_a 15.41
_cell_length_b 21.433
_cell_length_c 21.434
_cell_angle_alpha 119.984
_cell_angle_beta 89.984
_cell_angle_gamma 90.008
_space_group_name_H-M_alt 'P 1'
_space_group_name_Hall 'P 1'
loop_
    _symmetry_equiv_pos_as_xyz
    x,y,z
loop_
    _atom_site_label
    _atom_site_type_symbol
    _atom_site_fract_x
    _atom_site_fract_y
    _atom_site_fract_z
    _atom_site_occupancy
    Zr0     Zr   0.00001   0.30083   0.69910   1.000
    Zr1     Zr   0.50002   0.30083   0.69910   1.000
    Zr2     Zr   0.33335   0.39845   0.69915   1.000
    Zr3     Zr   0.83336   0.39845   0.69915   1.000
    Zr4     Zr   0.16666   0.30082   0.60155   1.000
    Zr5     Zr   0.66667   0.30082   0.60155   1.000
    Zr6     Zr   0.99999   0.69915   0.30082   1.000
    Zr7     Zr   0.50000   0.69915   0.30082   1.000
    Zr8     Zr   0.33335   0.60160   0.30085   1.000
    Zr9     Zr   0.83336   0.60160   0.30085   1.000
    Zr10    Zr   0.16667   0.69916   0.39845   1.000
    Zr11    Zr   0.66668   0.69916   0.39845   1.000
    N12     N    0.16667   0.66341   0.99999   1.000
    O13     O    0.31004   0.68330   0.13560   1.000
    O14     O    0.23991   0.64158   0.13469   1.000
    O15     O    0.09344   0.50692   0.86528   1.000
    O16     O    0.02331   0.54774   0.86438   1.000
    N17     N    0.33334   0.00001   0.66341   1.000
    O18     O    0.26011   0.13469   0.64155   1.000
    O19     O    0.18997   0.13563   0.68327   1.000
    O20     O    0.47670   0.86439   0.54772   1.000
    O21     O    0.40657   0.86532   0.50691   1.000
    N22     N    0.66668   0.33658   0.99998   1.000
    O23     O    0.73991   0.35844   0.86528   1.000
    O24     O    0.59345   0.49307   0.13467   1.000
    O25     O    0.52331   0.45228   0.13561   1.000
    O26     O    0.81004   0.31669   0.86433   1.000
    N27     N    0.50001   0.66343   0.66340   1.000
    O28     O    0.42679   0.64156   0.50691   1.000
    O29     O    0.35665   0.68329   0.54771   1.000
    O30     O    0.57323   0.50691   0.64152   1.000
    O31     O    0.64336   0.54772   0.68327   1.000
    N32     N    0.83334   0.00000   0.33657   1.000
    O33     O    0.76012   0.86531   0.35844   1.000
    O34     O    0.90657   0.13469   0.49304   1.000
    O35     O    0.97671   0.13560   0.45225   1.000
    O36     O    0.68998   0.86437   0.31669   1.000
    N37     N    0.16667   0.33658   0.99998   1.000
    O38     O    0.02331   0.45228   0.13561   1.000
    O39     O    0.09344   0.49307   0.13467   1.000
    O40     O    0.31003   0.31669   0.86433   1.000
    O41     O    0.23990   0.35844   0.86529   1.000
    N42     N    0.00001   0.33657   0.33655   1.000
    O43     O    0.85667   0.31670   0.45227   1.000
    O44     O    0.07323   0.49308   0.35845   1.000
    O45     O    0.14337   0.45230   0.31670   1.000
    O46     O    0.92681   0.35847   0.49306   1.000
    N47     N    0.83333   0.00001   0.66340   1.000
    O48     O    0.76011   0.13469   0.64154   1.000
    O49     O    0.68997   0.13563   0.68325   1.000
    O50     O    0.90656   0.86532   0.50690   1.000
    O51     O    0.97669   0.86439   0.54771   1.000
    N52     N    0.33335   0.00000   0.33654   1.000
    O53     O    0.47673   0.13560   0.45223   1.000
    O54     O    0.40658   0.13469   0.49302   1.000
    O55     O    0.18998   0.86437   0.31648   1.000
    O56     O    0.26012   0.86531   0.35841   1.000
    N57     N    0.66668   0.66341   0.99997   1.000
    O58     O    0.59345   0.50692   0.86527   1.000
    O59     O    0.52330   0.54774   0.86437   1.000
    O60     O    0.73992   0.64158   0.13468   1.000
    O61     O    0.81005   0.68330   0.13559   1.000
    N62     N    0.50001   0.33657   0.33655   1.000
    O63     O    0.57323   0.49308   0.35845   1.000
    O64     O    0.64337   0.45230   0.31670   1.000
    O65     O    0.42680   0.35847   0.49306   1.000
    O66     O    0.35667   0.31670   0.45227   1.000
    N67     N    0.00001   0.66343   0.66340   1.000
    O68     O    0.07322   0.50691   0.64152   1.000
    O69     O    0.92679   0.64156   0.50691   1.000
    O70     O    0.14335   0.54772   0.68327   1.000
    O71     O    0.85665   0.68329   0.54771   1.000
loop_
    _geom_bond_atom_site_label_1
    _geom_bond_atom_site_label_2
    _geom_bond_distance
    _geom_bond_site_symmetry_2
    _ccdc_geom_bond_type
    N12    O13       3.50400  1_556   S
    Zr7    O13       4.47521      .   S
    N12    O14       3.34387  1_556   S
    Zr8    O14       4.30641      .   S
    N12    O15       3.34385      .   S
    Zr0    O15       4.30651      .   S
    N12    O16       3.50360      .   S
    Zr3    O16       4.47488  1_655   S
    N17    O18       3.34336      .   S
    Zr4    O18       4.30590      .   S
    N17    O19       3.50358      .   S
    Zr0    O19       4.47479      .   S
    N17    O20       3.50331  1_545   S
    Zr11   O20       4.47443      .   S
    N17    O21       3.34352  1_545   S
    Zr7    O21       4.30615      .   S
    N22    O23       3.34350      .   S
    Zr3    O23       4.30553      .   S
    N22    O24       3.34347  1_556   S
    Zr7    O24       4.30602      .   S
    N22    O25       3.50343  1_556   S
    Zr8    O25       4.47465      .   S
    N22    O26       3.50334      .   S
    Zr0    O26       4.47431  1_455   S
    N27    O28       3.34275      .   S
    Zr8    O28       4.30546      .   S
    N27    O29       3.50271      .   S
    Zr10   O29       4.47386      .   S
    N27    O30       3.34279      .   S
    Zr5    O30       4.30550      .   S
    N27    O31       3.50276      .   S
    Zr3    O31       4.47380      .   S
    N32    O33       3.34330  1_545   S
    Zr11   O33       4.30586      .   S
    N32    O34       3.34362      .   S
    Zr0    O34       4.30607  1_455   S
    N32    O35       3.50353      .   S
    Zr4    O35       4.47486  1_455   S
    N32    O36       3.50329  1_545   S
    Zr7    O36       4.47429      .   S
    N37    O38       3.50335  1_556   S
    Zr9    O38       4.47456  1_655   S
    N37    O39       3.34348  1_556   S
    Zr6    O39       4.30604  1_655   S
    N37    O40       3.50335      .   S
    Zr1    O40       4.47445      .   S
    N37    O41       3.34325      .   S
    Zr2    O41       4.30568      .   S
    N42    O43       3.50221  1_455   S
    Zr5    O43       4.47311      .   S
    N42    O44       3.34232      .   S
    Zr10   O44       4.30494      .   S
    N42    O45       3.50232      .   S
    Zr8    O45       4.47331      .   S
    N42    O46       3.34234  1_455   S
    Zr3    O46       4.30505      .   S
    N47    O48       3.34325      .   S
    Zr5    O48       4.30580      .   S
    N47    O49       3.50356      .   S
    Zr1    O49       4.47450      .   S
    N47    O50       3.34351  1_545   S
    Zr6    O50       4.30609      .   S
    N47    O51       3.50330  1_545   S
    Zr10   O51       4.47442  1_455   S
    N52    O53       3.50360      .   S
    Zr5    O53       4.47493      .   S
    N52    O54       3.34363      .   S
    Zr1    O54       4.30639      .   S
    N52    O55       3.50225  1_545   S
    Zr6    O55       4.47587  1_655   S
    N52    O56       3.34333  1_545   S
    Zr10   O56       4.30632      .   S
    N57    O58       3.34381      .   S
    Zr1    O58       4.30644      .   S
    N57    O59       3.50362      .   S
    Zr2    O59       4.47492      .   S
    N57    O60       3.34404  1_556   S
    Zr9    O60       4.30657      .   S
    N57    O61       3.50400  1_556   S
    Zr6    O61       4.47525      .   S
    N62    O63       3.34234      .   S
    Zr11   O63       4.30497      .   S
    N62    O64       3.50237      .   S
    Zr9    O64       4.47336      .   S
    N62    O65       3.34239      .   S
    Zr2    O65       4.30509      .   S
    N62    O66       3.50227      .   S
    Zr4    O66       4.47317      .   S
    N67    O68       3.34276      .   S
    Zr4    O68       4.30546      .   S
    N67    O69       3.34272  1_455   S
    Zr9    O69       4.30543      .   S
    N67    O70       3.50271      .   S
    Zr2    O70       4.47375      .   S
    N67    O71       3.50266  1_455   S
    Zr11   O71       4.47381      .   S
