# CIF file generated by openbabel 2.4.90, see http://openbabel.sf.net
data_I
_chemical_name_common ''
_cell_length_a 15.41
_cell_length_b 21.433
_cell_length_c 21.434
_cell_angle_alpha 119.984
_cell_angle_beta 89.984
_cell_angle_gamma 90.008
_space_group_name_H-M_alt 'P 1'
_space_group_name_Hall 'P 1'
loop_
    _symmetry_equiv_pos_as_xyz
    x,y,z
loop_
    _atom_site_label
    _atom_site_type_symbol
    _atom_site_fract_x
    _atom_site_fract_y
    _atom_site_fract_z
    _atom_site_occupancy
    C0      C    0.00001   0.30083   0.69910   1.000
    C1      C    0.50002   0.30083   0.69910   1.000
    C2      C    0.33335   0.39845   0.69915   1.000
    C3      C    0.83336   0.39845   0.69915   1.000
    C4      C    0.16666   0.30082   0.60155   1.000
    C5      C    0.66667   0.30082   0.60155   1.000
    C6      C    0.99999   0.69915   0.30082   1.000
    C7      C    0.50000   0.69915   0.30082   1.000
    C8      C    0.33335   0.60160   0.30085   1.000
    C9      C    0.83336   0.60160   0.30085   1.000
    C10     C    0.16667   0.69916   0.39845   1.000
    C11     C    0.66668   0.69916   0.39845   1.000
    C12     C    0.06718   0.15364   0.40672   1.000
    C13     C    0.56720   0.15364   0.40672   1.000
    C14     C    0.27059   0.06634   0.41130   1.000
    C15     C    0.77060   0.06634   0.41130   1.000
    C16     C    0.33798   0.15978   0.52402   1.000
    C17     C    0.83799   0.15978   0.52402   1.000
    C18     C    0.50079   0.06172   0.29406   1.000
    C19     C    0.00000   0.06172   0.29406   1.000
    C20     C    0.40048   0.25314   0.84620   1.000
    C21     C    0.90049   0.25314   0.84628   1.000
    C22     C    0.10394   0.34508   0.93371   1.000
    C23     C    0.60394   0.34508   0.93370   1.000
    C24     C    0.17133   0.36432   0.84018   1.000
    C25     C    0.67134   0.36432   0.84018   1.000
    C26     C    0.33407   0.23243   0.93820   1.000
    C27     C    0.83408   0.23242   0.93827   1.000
    C28     C    0.23375   0.59316   0.74682   1.000
    C29     C    0.73376   0.59316   0.74682   1.000
    C30     C    0.43723   0.58875   0.65499   1.000
    C31     C    0.93724   0.58875   0.65499   1.000
    C32     C    0.00459   0.47596   0.63563   1.000
    C33     C    0.50460   0.47596   0.63563   1.000
    C34     C    0.16737   0.70589   0.76763   1.000
    C35     C    0.66738   0.70589   0.76763   1.000
    C36     C    0.06714   0.84632   0.59317   1.000
    C37     C    0.56715   0.84633   0.59317   1.000
    C38     C    0.27061   0.93375   0.58871   1.000
    C39     C    0.77063   0.93375   0.58871   1.000
    C40     C    0.33797   0.84027   0.47596   1.000
    C41     C    0.83798   0.84027   0.47596   1.000
    C42     C    0.50078   0.93829   0.70586   1.000
    C43     C    0.00000   0.93828   0.70586   1.000
    C44     C    0.40048   0.74688   0.15362   1.000
    C45     C    0.90049   0.74689   0.15362   1.000
    C46     C    0.10395   0.65488   0.06630   1.000
    C47     C    0.60396   0.65489   0.06633   1.000
    C48     C    0.17137   0.63565   0.15982   1.000
    C49     C    0.67138   0.63565   0.15982   1.000
    C50     C    0.33404   0.76759   0.06167   1.000
    C51     C    0.83405   0.76759   0.06167   1.000
    C52     C    0.23379   0.40684   0.25312   1.000
    C53     C    0.73380   0.40684   0.25312   1.000
    C54     C    0.43718   0.41120   0.34490   1.000
    C55     C    0.93720   0.41120   0.34490   1.000
    C56     C    0.00456   0.52401   0.36428   1.000
    C57     C    0.50457   0.52401   0.36428   1.000
    C58     C    0.16740   0.29410   0.23230   1.000
    C59     C    0.66741   0.29410   0.23230   1.000
    C60     C    0.26623   0.74687   0.59320   1.000
    C61     C    0.76625   0.74687   0.59320   1.000
    C62     C    0.06280   0.65506   0.58873   1.000
    C63     C    0.56281   0.65506   0.58873   1.000
    C64     C    0.49542   0.63569   0.47596   1.000
    C65     C    0.99543   0.63569   0.47596   1.000
    C66     C    0.33263   0.76768   0.70591   1.000
    C67     C    0.83264   0.76769   0.70591   1.000
    C68     C    0.43284   0.40678   0.15366   1.000
    C69     C    0.93285   0.40678   0.15366   1.000
    C70     C    0.22942   0.41131   0.06629   1.000
    C71     C    0.72943   0.41131   0.06629   1.000
    C72     C    0.16205   0.52404   0.15977   1.000
    C73     C    0.66206   0.52404   0.15977   1.000
    C74     C    0.99922   0.29410   0.06171   1.000
    C75     C    0.49923   0.29410   0.06171   1.000
    C76     C    0.09955   0.84631   0.25314   1.000
    C77     C    0.59956   0.84631   0.25314   1.000
    C78     C    0.39605   0.93375   0.34510   1.000
    C79     C    0.89607   0.93375   0.34510   1.000
    C80     C    0.32866   0.84023   0.36435   1.000
    C81     C    0.82867   0.84023   0.36435   1.000
    C82     C    0.16597   0.93829   0.23241   1.000
    C83     C    0.66598   0.93829   0.23241   1.000
    C84     C    0.26624   0.25317   0.40689   1.000
    C85     C    0.76625   0.25317   0.40689   1.000
    C86     C    0.06281   0.34494   0.41115   1.000
    C87     C    0.56282   0.34494   0.41115   1.000
    C88     C    0.49547   0.36433   0.52398   1.000
    C89     C    0.99548   0.36433   0.52398   1.000
    C90     C    0.33260   0.23233   0.29412   1.000
    C91     C    0.83261   0.23233   0.29412   1.000
    C92     C    0.43286   0.59325   0.84636   1.000
    C93     C    0.93287   0.59325   0.84630   1.000
    C94     C    0.22937   0.58865   0.93369   1.000
    C95     C    0.72938   0.58865   0.93300   1.000
    C96     C    0.16199   0.47594   0.84021   1.000
    C97     C    0.66200   0.47593   0.84020   1.000
    C98     C    0.99925   0.70591   0.93830   1.000
    C99     C    0.49926   0.70591   0.93831   1.000
    C100    C    0.09953   0.15366   0.74680   1.000
    C101    C    0.59954   0.15366   0.74680   1.000
    C102    C    0.39610   0.06636   0.65493   1.000
    C103    C    0.89612   0.06636   0.65493   1.000
    C104    C    0.32868   0.15984   0.63567   1.000
    C105    C    0.82869   0.15984   0.63567   1.000
    C106    C    0.16597   0.06171   0.76761   1.000
    C107    C    0.66599   0.06172   0.76761   1.000
    C108    C    0.00031   0.21801   0.54070   1.000
    C109    C    0.50032   0.21801   0.54077   1.000
    C110    C    0.00231   0.13395   0.40746   1.000
    C111    C    0.50232   0.13395   0.40746   1.000
    C112    C    0.33581   0.08509   0.40980   1.000
    C113    C    0.83582   0.08509   0.40980   1.000
    C114    C    0.37381   0.13732   0.47360   1.000
    C115    C    0.87382   0.13732   0.47360   1.000
    C116    C    0.45784   0.16213   0.47303   1.000
    C117    C    0.95785   0.16213   0.47303   1.000
    C118    C    0.46418   0.08169   0.34369   1.000
    C119    C    0.96420   0.08169   0.34369   1.000
    C120    C    0.38048   0.05624   0.34395   1.000
    C121    C    0.88050   0.05624   0.34395   1.000
    C122    C    0.26983   0.04326   0.25343   1.000
    C123    C    0.76984   0.04326   0.25343   1.000
    C124    C    0.33361   0.32286   0.78190   1.000
    C125    C    0.83362   0.32286   0.78191   1.000
    C126    C    0.33562   0.27358   0.86599   1.000
    C127    C    0.83563   0.27358   0.86599   1.000
    C128    C    0.16914   0.32481   0.91493   1.000
    C129    C    0.66915   0.32481   0.91493   1.000
    C130    C    0.20714   0.33637   0.86266   1.000
    C131    C    0.70715   0.33637   0.86266   1.000
    C132    C    0.29115   0.31098   0.83782   1.000
    C133    C    0.79116   0.31098   0.83782   1.000
    C134    C    0.29748   0.26208   0.91829   1.000
    C135    C    0.79749   0.26208   0.91829   1.000
    C136    C    0.21379   0.28779   0.94376   1.000
    C137    C    0.71380   0.28779   0.94376   1.000
    C138    C    0.10317   0.21020   0.95674   1.000
    C139    C    0.60317   0.21020   0.95674   1.000
    C140    C    0.16688   0.45912   0.67705   1.000
    C141    C    0.66690   0.45912   0.67705   1.000
    C142    C    0.16889   0.59246   0.72640   1.000
    C143    C    0.66890   0.59246   0.72640   1.000
    C144    C    0.00242   0.59021   0.67522   1.000
    C145    C    0.50243   0.59021   0.67520   1.000
    C146    C    0.04041   0.52638   0.66361   1.000
    C147    C    0.54042   0.52638   0.66361   1.000
    C148    C    0.12442   0.52690   0.68897   1.000
    C149    C    0.62443   0.52690   0.68897   1.000
    C150    C    0.13077   0.65627   0.73795   1.000
    C151    C    0.63078   0.65627   0.73795   1.000
    C152    C    0.04710   0.65604   0.71225   1.000
    C153    C    0.54711   0.65604   0.71225   1.000
    C154    C    0.43649   0.74658   0.78981   1.000
    C155    C    0.93650   0.74658   0.78981   1.000
    C156    C    0.00025   0.78197   0.45915   1.000
    C157    C    0.50027   0.78198   0.45915   1.000
    C158    C    0.00228   0.86604   0.59245   1.000
    C159    C    0.50229   0.86604   0.59245   1.000
    C160    C    0.33582   0.91497   0.59018   1.000
    C161    C    0.83583   0.91497   0.59018   1.000
    C162    C    0.37380   0.86272   0.52637   1.000
    C163    C    0.87381   0.86272   0.52637   1.000
    C164    C    0.45781   0.83788   0.52690   1.000
    C165    C    0.95782   0.83788   0.52690   1.000
    C166    C    0.46418   0.91832   0.65624   1.000
    C167    C    0.96419   0.91832   0.65624   1.000
    C168    C    0.38049   0.94379   0.65601   1.000
    C169    C    0.88050   0.94380   0.65601   1.000
    C170    C    0.26983   0.95675   0.74655   1.000
    C171    C    0.76984   0.95675   0.74655   1.000
    C172    C    0.33365   0.67715   0.21803   1.000
    C173    C    0.83366   0.67716   0.21804   1.000
    C174    C    0.33562   0.72643   0.13394   1.000
    C175    C    0.83563   0.72643   0.13395   1.000
    C176    C    0.16915   0.67517   0.08500   1.000
    C177    C    0.66916   0.67517   0.08508   1.000
    C178    C    0.20717   0.66362   0.13730   1.000
    C179    C    0.70718   0.66362   0.13733   1.000
    C180    C    0.29117   0.68902   0.16214   1.000
    C181    C    0.79118   0.68903   0.16214   1.000
    C182    C    0.29747   0.73793   0.08167   1.000
    C183    C    0.79748   0.73793   0.08167   1.000
    C184    C    0.21378   0.71220   0.05623   1.000
    C185    C    0.71379   0.71220   0.05620   1.000
    C186    C    0.10316   0.78979   0.04320   1.000
    C187    C    0.60317   0.78979   0.04320   1.000
    C188    C    0.16689   0.54087   0.32290   1.000
    C189    C    0.66691   0.54087   0.32290   1.000
    C190    C    0.16891   0.40753   0.27353   1.000
    C191    C    0.66893   0.40753   0.27353   1.000
    C192    C    0.00240   0.40976   0.32468   1.000
    C193    C    0.50241   0.40976   0.32468   1.000
    C194    C    0.04039   0.47359   0.33630   1.000
    C195    C    0.54040   0.47359   0.33630   1.000
    C196    C    0.12442   0.47308   0.31090   1.000
    C197    C    0.62443   0.47308   0.31095   1.000
    C198    C    0.13079   0.34372   0.26197   1.000
    C199    C    0.63080   0.34372   0.26197   1.000
    C200    C    0.04710   0.34393   0.28767   1.000
    C201    C    0.54711   0.34393   0.28767   1.000
    C202    C    0.43649   0.25340   0.21015   1.000
    C203    C    0.93650   0.25340   0.21015   1.000
    C204    C    0.33310   0.67710   0.45915   1.000
    C205    C    0.83311   0.67710   0.45915   1.000
    C206    C    0.33110   0.72646   0.59240   1.000
    C207    C    0.83111   0.72646   0.59240   1.000
    C208    C    0.49760   0.67529   0.59020   1.000
    C209    C    0.99761   0.67529   0.59020   1.000
    C210    C    0.45960   0.66367   0.52638   1.000
    C211    C    0.95961   0.66367   0.52638   1.000
    C212    C    0.37558   0.68903   0.52692   1.000
    C213    C    0.87559   0.68903   0.52692   1.000
    C214    C    0.36923   0.73801   0.65628   1.000
    C215    C    0.86924   0.73801   0.65628   1.000
    C216    C    0.45291   0.71230   0.65604   1.000
    C217    C    0.95292   0.71230   0.65604   1.000
    C218    C    0.06353   0.78983   0.74656   1.000
    C219    C    0.56354   0.78983   0.74656   1.000
    C220    C    0.49973   0.54082   0.21802   1.000
    C221    C    0.99974   0.54082   0.21802   1.000
    C222    C    0.49771   0.40751   0.13396   1.000
    C223    C    0.99772   0.40751   0.13396   1.000
    C224    C    0.16421   0.40982   0.08506   1.000
    C225    C    0.66422   0.40982   0.08506   1.000
    C226    C    0.12622   0.47362   0.13730   1.000
    C227    C    0.62623   0.47362   0.13730   1.000
    C228    C    0.04219   0.47307   0.16213   1.000
    C229    C    0.54220   0.47307   0.16213   1.000
    C230    C    0.03583   0.34373   0.08160   1.000
    C231    C    0.53584   0.34373   0.08160   1.000
    C232    C    0.11953   0.34397   0.05623   1.000
    C233    C    0.61954   0.34397   0.05623   1.000
    C234    C    0.23018   0.25343   0.04324   1.000
    C235    C    0.73019   0.25343   0.04324   1.000
    C236    C    0.16641   0.78195   0.32287   1.000
    C237    C    0.66642   0.78195   0.32287   1.000
    C238    C    0.16441   0.86602   0.27358   1.000
    C239    C    0.66442   0.86602   0.27358   1.000
    C240    C    0.33086   0.91496   0.32482   1.000
    C241    C    0.83088   0.91496   0.32482   1.000
    C242    C    0.29286   0.86270   0.33639   1.000
    C243    C    0.79288   0.86270   0.33639   1.000
    C244    C    0.20887   0.83786   0.31099   1.000
    C245    C    0.70888   0.83786   0.31099   1.000
    C246    C    0.20255   0.91831   0.26207   1.000
    C247    C    0.70256   0.91831   0.26207   1.000
    C248    C    0.28622   0.94378   0.28770   1.000
    C249    C    0.78623   0.94378   0.28779   1.000
    C250    C    0.39685   0.95675   0.21018   1.000
    C251    C    0.89686   0.95675   0.21018   1.000
    C252    C    0.33315   0.32293   0.54087   1.000
    C253    C    0.83316   0.32293   0.54087   1.000
    C254    C    0.33111   0.27357   0.40755   1.000
    C255    C    0.83112   0.27357   0.40755   1.000
    C256    C    0.49761   0.32472   0.40973   1.000
    C257    C    0.99762   0.32472   0.40973   1.000
    C258    C    0.45963   0.33635   0.47350   1.000
    C259    C    0.95965   0.33635   0.47358   1.000
    C260    C    0.37561   0.31100   0.47308   1.000
    C261    C    0.87562   0.31100   0.47308   1.000
    C262    C    0.36921   0.26201   0.34373   1.000
    C263    C    0.86923   0.26200   0.34373   1.000
    C264    C    0.45290   0.28770   0.34392   1.000
    C265    C    0.95291   0.28770   0.34392   1.000
    C266    C    0.06352   0.21016   0.25339   1.000
    C267    C    0.56353   0.21016   0.25339   1.000
    C268    C    0.49971   0.45919   0.78196   1.000
    C269    C    0.99972   0.45919   0.78195   1.000
    C270    C    0.49771   0.59250   0.86605   1.000
    C271    C    0.99773   0.59250   0.86605   1.000
    C272    C    0.16417   0.59016   0.91493   1.000
    C273    C    0.66418   0.59016   0.91490   1.000
    C274    C    0.12617   0.52636   0.86269   1.000
    C275    C    0.62618   0.52636   0.86269   1.000
    C276    C    0.04217   0.52693   0.83786   1.000
    C277    C    0.54218   0.52693   0.83787   1.000
    C278    C    0.03584   0.65627   0.91830   1.000
    C279    C    0.53585   0.65627   0.91833   1.000
    C280    C    0.11952   0.65601   0.94378   1.000
    C281    C    0.61953   0.65601   0.94378   1.000
    C282    C    0.23018   0.74655   0.95673   1.000
    C283    C    0.73019   0.74655   0.95673   1.000
    C284    C    0.16638   0.21804   0.67712   1.000
    C285    C    0.66639   0.21804   0.67710   1.000
    C286    C    0.16440   0.13398   0.72644   1.000
    C287    C    0.66441   0.13398   0.72644   1.000
    C288    C    0.33089   0.08511   0.67520   1.000
    C289    C    0.83091   0.08511   0.67520   1.000
    C290    C    0.29288   0.13735   0.66364   1.000
    C291    C    0.79289   0.13735   0.66360   1.000
    C292    C    0.20885   0.16216   0.68902   1.000
    C293    C    0.70887   0.16216   0.68902   1.000
    C294    C    0.20255   0.08171   0.73795   1.000
    C295    C    0.70256   0.08171   0.73795   1.000
    C296    C    0.28624   0.05626   0.71223   1.000
    C297    C    0.78626   0.05626   0.71223   1.000
    C298    C    0.39685   0.04326   0.78979   1.000
    C299    C    0.89687   0.04326   0.78979   1.000
    C300    C    0.33335   0.00002   0.27486   1.000
    C301    C    0.83336   0.00002   0.27486   1.000
    C302    C    0.16666   0.27486   0.00000   1.000
    C303    C    0.66667   0.27486   0.00000   1.000
    C304    C    0.00001   0.72518   0.72516   1.000
    C305    C    0.50002   0.72518   0.72516   1.000
    C306    C    0.33336   0.00002   0.72513   1.000
    C307    C    0.83337   0.00002   0.72513   1.000
    C308    C    0.16666   0.72511   0.00000   1.000
    C309    C    0.66667   0.72511   0.00000   1.000
    C310    C    0.00000   0.27480   0.27478   1.000
    C311    C    0.50000   0.27480   0.27478   1.000
    C312    C    0.45960   0.23793   0.59990   1.000
    C313    C    0.95961   0.23792   0.59994   1.000
    C314    C    0.07352   0.24158   0.53430   1.000
    C315    C    0.57354   0.24158   0.53430   1.000
    C316    C    0.29291   0.36214   0.76204   1.000
    C317    C    0.79292   0.36214   0.76200   1.000
    C318    C    0.40678   0.29278   0.75828   1.000
    C319    C    0.90680   0.29278   0.75828   1.000
    C320    C    0.12621   0.39998   0.63772   1.000
    C321    C    0.62622   0.39998   0.63772   1.000
    C322    C    0.24005   0.46556   0.70712   1.000
    C323    C    0.74006   0.46556   0.70712   1.000
    C324    C    0.45957   0.76209   0.40000   1.000
    C325    C    0.95958   0.76209   0.40000   1.000
    C326    C    0.07343   0.75836   0.46561   1.000
    C327    C    0.57344   0.75836   0.46561   1.000
    C328    C    0.29294   0.63789   0.23794   1.000
    C329    C    0.79295   0.63789   0.23794   1.000
    C330    C    0.40684   0.70721   0.24162   1.000
    C331    C    0.90685   0.70720   0.24160   1.000
    C332    C    0.12620   0.60001   0.36224   1.000
    C333    C    0.62621   0.60001   0.36224   1.000
    C334    C    0.24009   0.53445   0.29285   1.000
    C335    C    0.74010   0.53445   0.29285   1.000
    C336    C    0.37379   0.63778   0.40000   1.000
    C337    C    0.87380   0.63778   0.40000   1.000
    C338    C    0.25990   0.70714   0.46560   1.000
    C339    C    0.75991   0.70714   0.46560   1.000
    C340    C    0.04043   0.59998   0.23791   1.000
    C341    C    0.54044   0.59998   0.23791   1.000
    C342    C    0.42653   0.53436   0.24163   1.000
    C343    C    0.92654   0.53436   0.24163   1.000
    C344    C    0.20710   0.76209   0.36210   1.000
    C345    C    0.70711   0.76209   0.36217   1.000
    C346    C    0.09324   0.75831   0.29200   1.000
    C347    C    0.59326   0.75831   0.29280   1.000
    C348    C    0.37382   0.36228   0.60000   1.000
    C349    C    0.87383   0.36228   0.60000   1.000
    C350    C    0.25998   0.29285   0.53445   1.000
    C351    C    0.75999   0.29285   0.53445   1.000
    C352    C    0.04040   0.40003   0.76203   1.000
    C353    C    0.54042   0.40003   0.76202   1.000
    C354    C    0.42652   0.46567   0.75838   1.000
    C355    C    0.92653   0.46567   0.75838   1.000
    C356    C    0.20709   0.23791   0.63783   1.000
    C357    C    0.70710   0.23791   0.63783   1.000
    C358    C    0.09318   0.24164   0.70718   1.000
    C359    C    0.59319   0.24164   0.70710   1.000
    C360    C    0.20346   0.07207   0.30168   1.000
    C361    C    0.70348   0.07207   0.30168   1.000
    C362    C    0.23354   0.00283   0.18721   1.000
    C363    C    0.73355   0.00283   0.18721   1.000
    C364    C    0.31117   0.09893   0.25318   1.000
    C365    C    0.81118   0.09893   0.25318   1.000
    C366    C    0.03680   0.22963   0.92793   1.000
    C367    C    0.53681   0.22963   0.92793   1.000
    C368    C    0.06686   0.18438   0.99718   1.000
    C369    C    0.56687   0.18438   0.99718   1.000
    C370    C    0.14452   0.15431   0.90108   1.000
    C371    C    0.64453   0.15431   0.90108   1.000
    C372    C    0.37013   0.69832   0.77038   1.000
    C373    C    0.87014   0.69832   0.77038   1.000
    C374    C    0.40020   0.81281   0.81562   1.000
    C375    C    0.90021   0.81281   0.81562   1.000
    C376    C    0.47783   0.74680   0.84570   1.000
    C377    C    0.97784   0.74680   0.84570   1.000
    C378    C    0.20347   0.92793   0.69831   1.000
    C379    C    0.70348   0.92793   0.69831   1.000
    C380    C    0.23353   0.99717   0.81278   1.000
    C381    C    0.73354   0.99717   0.81278   1.000
    C382    C    0.31117   0.90108   0.74679   1.000
    C383    C    0.81118   0.90108   0.74670   1.000
    C384    C    0.03678   0.77036   0.07200   1.000
    C385    C    0.53680   0.77036   0.07200   1.000
    C386    C    0.06686   0.81560   0.00280   1.000
    C387    C    0.56688   0.81560   0.00280   1.000
    C388    C    0.14450   0.84568   0.09889   1.000
    C389    C    0.64451   0.84568   0.09889   1.000
    C390    C    0.37013   0.30166   0.22960   1.000
    C391    C    0.87014   0.30166   0.22960   1.000
    C392    C    0.40020   0.18717   0.18436   1.000
    C393    C    0.90021   0.18717   0.18436   1.000
    C394    C    0.47785   0.25318   0.15425   1.000
    C395    C    0.97786   0.25318   0.15425   1.000
    C396    C    0.12989   0.77038   0.69830   1.000
    C397    C    0.62990   0.77038   0.69830   1.000
    C398    C    0.09980   0.81562   0.81270   1.000
    C399    C    0.59982   0.81562   0.81270   1.000
    C400    C    0.02217   0.84573   0.74679   1.000
    C401    C    0.52218   0.84573   0.74679   1.000
    C402    C    0.29654   0.30168   0.07205   1.000
    C403    C    0.79655   0.30168   0.07205   1.000
    C404    C    0.26648   0.18721   0.00282   1.000
    C405    C    0.76649   0.18721   0.00282   1.000
    C406    C    0.18884   0.25320   0.09892   1.000
    C407    C    0.68886   0.25320   0.09892   1.000
    C408    C    0.46322   0.92793   0.22961   1.000
    C409    C    0.96323   0.92793   0.22961   1.000
    C410    C    0.43315   0.99718   0.18436   1.000
    C411    C    0.93316   0.99718   0.18436   1.000
    C412    C    0.35551   0.90109   0.15430   1.000
    C413    C    0.85552   0.90109   0.15430   1.000
    C414    C    0.12987   0.22960   0.30165   1.000
    C415    C    0.62988   0.22960   0.30165   1.000
    C416    C    0.09981   0.18435   0.18716   1.000
    C417    C    0.59982   0.18435   0.18716   1.000
    C418    C    0.02218   0.15426   0.25318   1.000
    C419    C    0.52219   0.15426   0.25318   1.000
    C420    C    0.29655   0.69831   0.92791   1.000
    C421    C    0.79656   0.69831   0.92791   1.000
    C422    C    0.26648   0.81278   0.99715   1.000
    C423    C    0.76649   0.81278   0.99715   1.000
    C424    C    0.18884   0.74679   0.90107   1.000
    C425    C    0.68885   0.74679   0.90107   1.000
    C426    C    0.46323   0.07208   0.77035   1.000
    C427    C    0.96324   0.07208   0.77035   1.000
    C428    C    0.43315   0.00282   0.81559   1.000
    C429    C    0.93316   0.00282   0.81559   1.000
    C430    C    0.35551   0.09891   0.84568   1.000
    C431    C    0.85552   0.09891   0.84568   1.000
    O432    O    0.58502   0.80269   0.02300   1.000
    O433    O    0.08501   0.80269   0.02300   1.000
    O434    O    0.74834   0.22032   0.02303   1.000
    O435    O    0.24833   0.22032   0.02303   1.000
    O436    O    0.56998   0.78007   0.05760   1.000
    O437    O    0.62384   0.81773   0.07105   1.000
    O438    O    0.63492   0.75745   0.02160   1.000
    O439    O    0.06997   0.78007   0.05760   1.000
    O440    O    0.12383   0.81773   0.07105   1.000
    O441    O    0.13491   0.75745   0.02160   1.000
    O442    O    0.26336   0.27755   0.05765   1.000
    O443    O    0.20951   0.25331   0.07108   1.000
    O444    O    0.19842   0.26415   0.02162   1.000
    O445    O    0.76337   0.27755   0.05765   1.000
    O446    O    0.70952   0.25331   0.07108   1.000
    O447    O    0.69843   0.26415   0.02162   1.000
    O448    O    0.75564   0.72507   0.06893   1.000
    O449    O    0.69148   0.69369   0.07064   1.000
    O450    O    0.69023   0.71866   0.02810   1.000
    O451    O    0.07768   0.34385   0.06892   1.000
    O452    O    0.14187   0.37689   0.07064   1.000
    O453    O    0.14309   0.30942   0.02811   1.000
    O454    O    0.57769   0.34385   0.06892   1.000
    O455    O    0.64188   0.37689   0.07064   1.000
    O456    O    0.64310   0.30942   0.02811   1.000
    O457    O    0.25562   0.72507   0.06895   1.000
    O458    O    0.19147   0.69369   0.07061   1.000
    O459    O    0.19022   0.71866   0.02812   1.000
    O460    O    0.81576   0.75276   0.07167   1.000
    O461    O    0.31575   0.75276   0.07167   1.000
    O462    O    0.51753   0.31891   0.07166   1.000
    O463    O    0.01752   0.31891   0.07166   1.000
    O464    O    0.19682   0.41056   0.07568   1.000
    O465    O    0.69683   0.41056   0.07568   1.000
    O466    O    0.13655   0.66503   0.07565   1.000
    O467    O    0.63656   0.66503   0.07570   1.000
    O468    O    0.01677   0.37562   0.10778   1.000
    O469    O    0.51677   0.37562   0.10778   1.000
    O470    O    0.81655   0.73218   0.10781   1.000
    O471    O    0.31655   0.73218   0.10781   1.000
    O472    O    0.18816   0.66939   0.11115   1.000
    O473    O    0.64522   0.44172   0.11118   1.000
    O474    O    0.14521   0.44172   0.11118   1.000
    O475    O    0.68817   0.66939   0.11120   1.000
    O476    O    0.36805   0.73666   0.14378   1.000
    O477    O    0.31340   0.70773   0.14804   1.000
    O478    O    0.86806   0.73666   0.14379   1.000
    O479    O    0.81341   0.70773   0.14805   1.000
    O480    O    0.46527   0.40714   0.14381   1.000
    O481    O    0.51995   0.44029   0.14805   1.000
    O482    O    0.96528   0.40714   0.14381   1.000
    O483    O    0.01995   0.44029   0.14805   1.000
    O484    O    0.14413   0.49883   0.14854   1.000
    O485    O    0.08420   0.47335   0.14972   1.000
    O486    O    0.64414   0.49883   0.14854   1.000
    O487    O    0.58421   0.47335   0.14972   1.000
    O488    O    0.18927   0.64964   0.14856   1.000
    O489    O    0.24917   0.67632   0.14972   1.000
    O490    O    0.68928   0.64964   0.14857   1.000
    O491    O    0.74918   0.67632   0.14974   1.000
    O492    O    0.95718   0.25329   0.18220   1.000
    O493    O    0.45717   0.25329   0.18220   1.000
    O494    O    0.37618   0.92892   0.18224   1.000
    O495    O    0.87619   0.92892   0.18224   1.000
    O496    O    0.52096   0.50695   0.19007   1.000
    O497    O    0.02096   0.50695   0.19007   1.000
    O498    O    0.81242   0.68309   0.19009   1.000
    O499    O    0.31241   0.68309   0.19008   1.000
    O500    O    0.91836   0.22029   0.19725   1.000
    O501    O    0.91501   0.97697   0.19727   1.000
    O502    O    0.41500   0.97697   0.19727   1.000
    O503    O    0.41834   0.22029   0.19725   1.000
    O504    O    0.58168   0.19726   0.22028   1.000
    O505    O    0.08167   0.19726   0.22028   1.000
    O506    O    0.25168   0.02304   0.22032   1.000
    O507    O    0.75169   0.02304   0.22032   1.000
    O508    O    0.40331   0.27753   0.21988   1.000
    O509    O    0.46824   0.26410   0.24247   1.000
    O510    O    0.90332   0.27753   0.21988   1.000
    O511    O    0.96825   0.26410   0.24247   1.000
    O512    O    0.43003   0.94234   0.21990   1.000
    O513    O    0.36510   0.97838   0.24252   1.000
    O514    O    0.93005   0.94234   0.21990   1.000
    O515    O    0.86511   0.97838   0.24252   1.000
    O516    O    0.02008   0.57040   0.22797   1.000
    O517    O    0.96314   0.53759   0.22983   1.000
    O518    O    0.52008   0.57040   0.22797   1.000
    O519    O    0.46313   0.53759   0.22983   1.000
    O520    O    0.31329   0.65752   0.22798   1.000
    O521    O    0.37025   0.69218   0.22983   1.000
    O522    O    0.81330   0.65752   0.22799   1.000
    O523    O    0.87026   0.69218   0.22982   1.000
    O524    O    0.14909   0.31891   0.24713   1.000
    O525    O    0.64910   0.31891   0.24713   1.000
    O526    O    0.18426   0.92830   0.24724   1.000
    O527    O    0.68427   0.92830   0.24724   1.000
    O528    O    0.52022   0.64957   0.26936   1.000
    O529    O    0.02021   0.64957   0.26936   1.000
    O530    O    0.31315   0.61975   0.26939   1.000
    O531    O    0.81316   0.61974   0.26939   1.000
    O532    O    0.95342   0.70318   0.27121   1.000
    O533    O    0.45342   0.70318   0.27122   1.000
    O534    O    0.37994   0.56798   0.27124   1.000
    O535    O    0.87995   0.56798   0.27124   1.000
    O536    O    0.20135   0.40719   0.26332   1.000
    O537    O    0.70136   0.40719   0.26332   1.000
    O538    O    0.63199   0.85617   0.26336   1.000
    O539    O    0.13198   0.85617   0.26336   1.000
    O540    O    0.29050   0.07109   0.25331   1.000
    O541    O    0.54286   0.18221   0.25329   1.000
    O542    O    0.79051   0.07109   0.25331   1.000
    O543    O    0.04285   0.18221   0.25329   1.000
    O544    O    0.53177   0.24248   0.26409   1.000
    O545    O    0.59671   0.21988   0.27752   1.000
    O546    O    0.03176   0.24248   0.26409   1.000
    O547    O    0.09670   0.21988   0.27752   1.000
    O548    O    0.30159   0.02164   0.26415   1.000
    O549    O    0.23665   0.05766   0.27755   1.000
    O550    O    0.80160   0.02164   0.26415   1.000
    O551    O    0.73666   0.05766   0.27755   1.000
    O552    O    0.64986   0.37562   0.26775   1.000
    O553    O    0.58895   0.34382   0.27482   1.000
    O554    O    0.14985   0.37562   0.26775   1.000
    O555    O    0.08894   0.34382   0.27482   1.000
    O556    O    0.18348   0.89217   0.26782   1.000
    O557    O    0.24438   0.93105   0.27488   1.000
    O558    O    0.68349   0.89217   0.26782   1.000
    O559    O    0.74439   0.93105   0.27493   1.000
    O560    O    0.64668   0.44030   0.29224   1.000
    O561    O    0.14667   0.44030   0.29222   1.000
    O562    O    0.68665   0.85194   0.29228   1.000
    O563    O    0.18664   0.85194   0.29228   1.000
    O564    O    0.52355   0.30937   0.28123   1.000
    O565    O    0.47645   0.28125   0.30935   1.000
    O566    O    0.02355   0.30937   0.28123   1.000
    O567    O    0.97646   0.28125   0.30935   1.000
    O568    O    0.80980   0.97190   0.28132   1.000
    O569    O    0.85693   0.02813   0.30940   1.000
    O570    O    0.30979   0.97190   0.28128   1.000
    O571    O    0.35692   0.02813   0.30940   1.000
    O572    O    0.52476   0.37684   0.30618   1.000
    O573    O    0.02475   0.37684   0.30618   1.000
    O574    O    0.30854   0.92937   0.30626   1.000
    O575    O    0.80855   0.92937   0.30630   1.000
    O576    O    0.04662   0.72873   0.29641   1.000
    O577    O    0.12983   0.77013   0.30743   1.000
    O578    O    0.54663   0.72873   0.29681   1.000
    O579    O    0.62984   0.77013   0.30784   1.000
    O580    O    0.78673   0.56802   0.29685   1.000
    O581    O    0.70350   0.53766   0.30788   1.000
    O582    O    0.28672   0.56803   0.29685   1.000
    O583    O    0.20349   0.53766   0.30788   1.000
    O584    O    0.48249   0.07170   0.31887   1.000
    O585    O    0.98210   0.07170   0.31887   1.000
    O586    O    0.35091   0.24717   0.31892   1.000
    O587    O    0.85092   0.24717   0.31892   1.000
    O588    O    0.97979   0.73062   0.35041   1.000
    O589    O    0.47979   0.73062   0.35041   1.000
    O590    O    0.85358   0.61969   0.35043   1.000
    O591    O    0.35357   0.61969   0.35043   1.000
    O592    O    0.14566   0.50697   0.31690   1.000
    O593    O    0.08240   0.47334   0.32360   1.000
    O594    O    0.64567   0.50697   0.31693   1.000
    O595    O    0.58241   0.47334   0.32362   1.000
    O596    O    0.68765   0.80990   0.31693   1.000
    O597    O    0.75088   0.85028   0.32369   1.000
    O598    O    0.18764   0.80990   0.31693   1.000
    O599    O    0.25087   0.85028   0.32369   1.000
    O600    O    0.18675   0.77202   0.34248   1.000
    O601    O    0.68676   0.77202   0.34252   1.000
    O602    O    0.14655   0.57044   0.34257   1.000
    O603    O    0.64656   0.57044   0.34257   1.000
    O604    O    0.52140   0.44167   0.33049   1.000
    O605    O    0.46980   0.41048   0.33479   1.000
    O606    O    0.02139   0.44167   0.33049   1.000
    O607    O    0.96980   0.41048   0.33479   1.000
    O608    O    0.31186   0.88883   0.33060   1.000
    O609    O    0.36346   0.92435   0.33496   1.000
    O610    O    0.81188   0.88883   0.33060   1.000
    O611    O    0.86347   0.92435   0.33496   1.000
    O612    O    0.52248   0.49880   0.35029   1.000
    O613    O    0.02247   0.49880   0.35029   1.000
    O614    O    0.31076   0.85146   0.35037   1.000
    O615    O    0.81077   0.85146   0.35037   1.000
    O616    O    0.42233   0.06897   0.34382   1.000
    O617    O    0.48325   0.10782   0.37557   1.000
    O618    O    0.92235   0.06897   0.34382   1.000
    O619    O    0.98325   0.10782   0.37557   1.000
    O620    O    0.41106   0.27485   0.34383   1.000
    O621    O    0.35016   0.26779   0.37564   1.000
    O622    O    0.91107   0.27485   0.34383   1.000
    O623    O    0.85017   0.26779   0.37564   1.000
    O624    O    0.97527   0.30621   0.37683   1.000
    O625    O    0.47525   0.30621   0.37683   1.000
    O626    O    0.85816   0.07067   0.37688   1.000
    O627    O    0.35815   0.07067   0.37688   1.000
    O628    O    0.18688   0.73062   0.38027   1.000
    O629    O    0.68689   0.73063   0.38031   1.000
    O630    O    0.14644   0.64959   0.38034   1.000
    O631    O    0.64645   0.64959   0.38034   1.000
    O632    O    0.21329   0.70315   0.43203   1.000
    O633    O    0.12005   0.72876   0.43203   1.000
    O634    O    0.71330   0.70315   0.43203   1.000
    O635    O    0.62006   0.72876   0.43203   1.000
    O636    O    0.85345   0.65744   0.42958   1.000
    O637    O    0.47992   0.77203   0.42958   1.000
    O638    O    0.97992   0.77203   0.42958   1.000
    O639    O    0.35344   0.65744   0.42958   1.000
    O640    O    0.53476   0.14380   0.40709   1.000
    O641    O    0.03475   0.14380   0.40709   1.000
    O642    O    0.79869   0.26337   0.40722   1.000
    O643    O    0.29867   0.26337   0.40722   1.000
    O644    O    0.98008   0.14804   0.44024   1.000
    O645    O    0.48008   0.14804   0.44024   1.000
    O646    O    0.85337   0.29228   0.44032   1.000
    O647    O    0.35336   0.29229   0.44032   1.000
    O648    O    0.03021   0.33483   0.41044   1.000
    O649    O    0.97863   0.33053   0.44166   1.000
    O650    O    0.53021   0.33483   0.41044   1.000
    O651    O    0.47862   0.33053   0.44161   1.000
    O652    O    0.30320   0.07571   0.41055   1.000
    O653    O    0.35481   0.11120   0.44170   1.000
    O654    O    0.80321   0.07571   0.41055   1.000
    O655    O    0.85482   0.11120   0.44170   1.000
    O656    O    0.53685   0.77017   0.46238   1.000
    O657    O    0.47904   0.80993   0.49303   1.000
    O658    O    0.03684   0.77017   0.46238   1.000
    O659    O    0.97904   0.80993   0.49303   1.000
    O660    O    0.79651   0.69212   0.46238   1.000
    O661    O    0.85435   0.68306   0.49304   1.000
    O662    O    0.29650   0.69212   0.46238   1.000
    O663    O    0.35434   0.68306   0.49304   1.000
    O664    O    0.91584   0.14972   0.47331   1.000
    O665    O    0.97908   0.19007   0.50687   1.000
    O666    O    0.41583   0.14972   0.47331   1.000
    O667    O    0.47908   0.19007   0.50690   1.000
    O668    O    0.91763   0.32367   0.47333   1.000
    O669    O    0.85439   0.31696   0.50697   1.000
    O670    O    0.41762   0.32367   0.47329   1.000
    O671    O    0.35438   0.31697   0.50697   1.000
    O672    O    0.47755   0.35034   0.49874   1.000
    O673    O    0.97756   0.35034   0.49878   1.000
    O674    O    0.35589   0.14855   0.49881   1.000
    O675    O    0.85590   0.14855   0.49881   1.000
    O676    O    0.35588   0.85150   0.50116   1.000
    O677    O    0.85589   0.85150   0.50116   1.000
    O678    O    0.47751   0.64968   0.50117   1.000
    O679    O    0.97752   0.64968   0.50117   1.000
    O680    O    0.91581   0.85030   0.52664   1.000
    O681    O    0.85482   0.88885   0.55828   1.000
    O682    O    0.41580   0.85030   0.52664   1.000
    O683    O    0.35481   0.88885   0.55828   1.000
    O684    O    0.41759   0.67635   0.52665   1.000
    O685    O    0.47860   0.66948   0.55829   1.000
    O686    O    0.91760   0.67635   0.52665   1.000
    O687    O    0.97861   0.66948   0.55829   1.000
    O688    O    0.48005   0.85196   0.55968   1.000
    O689    O    0.98005   0.85196   0.55968   1.000
    O690    O    0.35334   0.70774   0.55966   1.000
    O691    O    0.85335   0.70774   0.55966   1.000
    O692    O    0.03692   0.22979   0.53750   1.000
    O693    O    0.12009   0.27120   0.56793   1.000
    O694    O    0.53693   0.22979   0.53753   1.000
    O695    O    0.62010   0.27120   0.56793   1.000
    O696    O    0.79657   0.30789   0.53766   1.000
    O697    O    0.71333   0.29684   0.56800   1.000
    O698    O    0.29656   0.30789   0.53766   1.000
    O699    O    0.21332   0.29684   0.56800   1.000
    O700    O    0.97996   0.22797   0.57032   1.000
    O701    O    0.47996   0.22797   0.57034   1.000
    O702    O    0.35348   0.34260   0.57044   1.000
    O703    O    0.85350   0.34260   0.57044   1.000
    O704    O    0.30322   0.92436   0.58944   1.000
    O705    O    0.80323   0.92436   0.58944   1.000
    O706    O    0.03021   0.66517   0.58946   1.000
    O707    O    0.53021   0.66517   0.58946   1.000
    O708    O    0.35815   0.92938   0.62310   1.000
    O709    O    0.85817   0.92938   0.62310   1.000
    O710    O    0.47525   0.69379   0.62312   1.000
    O711    O    0.97527   0.69379   0.62312   1.000
    O712    O    0.29867   0.73666   0.59280   1.000
    O713    O    0.35017   0.73223   0.62434   1.000
    O714    O    0.79868   0.73667   0.59280   1.000
    O715    O    0.85018   0.73223   0.62434   1.000
    O716    O    0.03471   0.85618   0.59281   1.000
    O717    O    0.98323   0.89218   0.62435   1.000
    O718    O    0.53472   0.85618   0.59281   1.000
    O719    O    0.48323   0.89218   0.62435   1.000
    O720    O    0.47981   0.26938   0.64950   1.000
    O721    O    0.97981   0.26938   0.64952   1.000
    O722    O    0.85360   0.38037   0.64958   1.000
    O723    O    0.35358   0.38036   0.64958   1.000
    O724    O    0.14643   0.35040   0.61963   1.000
    O725    O    0.18688   0.26937   0.61969   1.000
    O726    O    0.64645   0.35040   0.61963   1.000
    O727    O    0.68689   0.26937   0.61969   1.000
    O728    O    0.52251   0.50117   0.64962   1.000
    O729    O    0.02250   0.50117   0.64962   1.000
    O730    O    0.31078   0.14859   0.64966   1.000
    O731    O    0.81079   0.14859   0.64963   1.000
    O732    O    0.14655   0.42955   0.65738   1.000
    O733    O    0.64656   0.42955   0.65738   1.000
    O734    O    0.18673   0.22798   0.65748   1.000
    O735    O    0.68675   0.22798   0.65746   1.000
    O736    O    0.36350   0.07573   0.66507   1.000
    O737    O    0.86351   0.07573   0.66507   1.000
    O738    O    0.46983   0.58948   0.66510   1.000
    O739    O    0.96983   0.58948   0.66511   1.000
    O740    O    0.42233   0.93106   0.65612   1.000
    O741    O    0.35693   0.97191   0.69057   1.000
    O742    O    0.92234   0.93106   0.65612   1.000
    O743    O    0.85694   0.97191   0.69057   1.000
    O744    O    0.41107   0.72515   0.65616   1.000
    O745    O    0.47646   0.71874   0.69060   1.000
    O746    O    0.91108   0.72515   0.65616   1.000
    O747    O    0.97646   0.71874   0.69060   1.000
    O748    O    0.48248   0.92830   0.68105   1.000
    O749    O    0.98209   0.92830   0.68105   1.000
    O750    O    0.35093   0.75285   0.68110   1.000
    O751    O    0.85094   0.75285   0.68110   1.000
    O752    O    0.81190   0.11123   0.66940   1.000
    O753    O    0.75088   0.14975   0.67631   1.000
    O754    O    0.52143   0.55829   0.66941   1.000
    O755    O    0.58242   0.52664   0.67629   1.000
    O756    O    0.02142   0.55829   0.66942   1.000
    O757    O    0.08241   0.52664   0.67629   1.000
    O758    O    0.31189   0.11123   0.66942   1.000
    O759    O    0.25087   0.14975   0.67633   1.000
    O760    O    0.52477   0.62313   0.69373   1.000
    O761    O    0.30857   0.07068   0.69372   1.000
    O762    O    0.80858   0.07068   0.69372   1.000
    O763    O    0.02476   0.62313   0.69374   1.000
    O764    O    0.64566   0.49301   0.68301   1.000
    O765    O    0.70348   0.46234   0.69209   1.000
    O766    O    0.14565   0.49301   0.68301   1.000
    O767    O    0.20347   0.46234   0.69209   1.000
    O768    O    0.68763   0.19010   0.68306   1.000
    O769    O    0.62979   0.22984   0.69210   1.000
    O770    O    0.18762   0.19010   0.68307   1.000
    O771    O    0.12978   0.22984   0.69215   1.000
    O772    O    0.14666   0.55968   0.70769   1.000
    O773    O    0.64667   0.55968   0.70769   1.000
    O774    O    0.18663   0.14807   0.70773   1.000
    O775    O    0.68664   0.14807   0.70773   1.000
    O776    O    0.59672   0.78011   0.72243   1.000
    O777    O    0.09671   0.78011   0.72243   1.000
    O778    O    0.73666   0.94234   0.72243   1.000
    O779    O    0.23665   0.94234   0.72243   1.000
    O780    O    0.54660   0.27124   0.70310   1.000
    O781    O    0.45340   0.29681   0.72869   1.000
    O782    O    0.52022   0.35043   0.73056   1.000
    O783    O    0.04659   0.27124   0.70314   1.000
    O784    O    0.95340   0.29681   0.72869   1.000
    O785    O    0.02020   0.35043   0.73057   1.000
    O786    O    0.78671   0.43201   0.70314   1.000
    O787    O    0.87994   0.43206   0.72876   1.000
    O788    O    0.81314   0.38030   0.73057   1.000
    O789    O    0.28670   0.43201   0.70314   1.000
    O790    O    0.37993   0.43206   0.72876   1.000
    O791    O    0.31313   0.38030   0.73060   1.000
    O792    O    0.30980   0.02814   0.71868   1.000
    O793    O    0.24440   0.06898   0.72509   1.000
    O794    O    0.80981   0.02814   0.71868   1.000
    O795    O    0.74441   0.06898   0.72509   1.000
    O796    O    0.02355   0.69061   0.71871   1.000
    O797    O    0.08894   0.65616   0.72510   1.000
    O798    O    0.52356   0.69061   0.71871   1.000
    O799    O    0.58895   0.65616   0.72510   1.000
    O800    O    0.30160   0.97839   0.73584   1.000
    O801    O    0.36511   0.02164   0.75746   1.000
    O802    O    0.80161   0.97839   0.73584   1.000
    O803    O    0.86512   0.02164   0.75746   1.000
    O804    O    0.53178   0.75751   0.73586   1.000
    O805    O    0.46825   0.73588   0.75749   1.000
    O806    O    0.03177   0.75751   0.73586   1.000
    O807    O    0.96825   0.73588   0.75749   1.000
    O808    O    0.64984   0.62436   0.73218   1.000
    O809    O    0.70133   0.59281   0.73661   1.000
    O810    O    0.14983   0.62436   0.73218   1.000
    O811    O    0.20132   0.59281   0.73661   1.000
    O812    O    0.18347   0.10784   0.73219   1.000
    O813    O    0.13196   0.14382   0.73662   1.000
    O814    O    0.68349   0.10784   0.73219   1.000
    O815    O    0.63197   0.14382   0.73662   1.000
    O816    O    0.14907   0.68108   0.75279   1.000
    O817    O    0.64908   0.68108   0.75279   1.000
    O818    O    0.68427   0.07171   0.75278   1.000
    O819    O    0.18426   0.07171   0.75278   1.000
    O820    O    0.29050   0.92892   0.74667   1.000
    O821    O    0.25168   0.97696   0.77966   1.000
    O822    O    0.79051   0.92892   0.74663   1.000
    O823    O    0.75169   0.97696   0.77966   1.000
    O824    O    0.04285   0.81778   0.74668   1.000
    O825    O    0.08167   0.80273   0.77963   1.000
    O826    O    0.54286   0.81778   0.74668   1.000
    O827    O    0.58168   0.80273   0.77963   1.000
    O828    O    0.87021   0.30782   0.77009   1.000
    O829    O    0.37020   0.30782   0.77009   1.000
    O830    O    0.46311   0.46243   0.77017   1.000
    O831    O    0.96313   0.46243   0.77016   1.000
    O832    O    0.81327   0.34250   0.77196   1.000
    O833    O    0.52006   0.42961   0.77199   1.000
    O834    O    0.02006   0.42961   0.77199   1.000
    O835    O    0.31326   0.34250   0.77197   1.000
    O836    O    0.43004   0.05767   0.78007   1.000
    O837    O    0.93005   0.05767   0.78007   1.000
    O838    O    0.40331   0.72245   0.78009   1.000
    O839    O    0.90332   0.72245   0.78009   1.000
    O840    O    0.31238   0.31692   0.80986   1.000
    O841    O    0.81239   0.31692   0.80986   1.000
    O842    O    0.02094   0.49306   0.80990   1.000
    O843    O    0.52094   0.49306   0.80991   1.000
    O844    O    0.91501   0.02304   0.80269   1.000
    O845    O    0.87619   0.07108   0.81774   1.000
    O846    O    0.41500   0.02304   0.80269   1.000
    O847    O    0.37618   0.07108   0.81774   1.000
    O848    O    0.41835   0.77969   0.80272   1.000
    O849    O    0.45716   0.74669   0.81776   1.000
    O850    O    0.91836   0.77969   0.80272   1.000
    O851    O    0.95717   0.74669   0.81776   1.000
    O852    O    0.24914   0.32367   0.85024   1.000
    O853    O    0.31338   0.29228   0.85191   1.000
    O854    O    0.74915   0.32367   0.85024   1.000
    O855    O    0.81339   0.29228   0.85191   1.000
    O856    O    0.08417   0.52665   0.85028   1.000
    O857    O    0.01995   0.55972   0.85196   1.000
    O858    O    0.58418   0.52665   0.85028   1.000
    O859    O    0.51994   0.55972   0.85196   1.000
    O860    O    0.18923   0.35034   0.85142   1.000
    O861    O    0.68924   0.35034   0.85142   1.000
    O862    O    0.64409   0.50115   0.85145   1.000
    O863    O    0.14408   0.50115   0.85145   1.000
    O864    O    0.36805   0.26336   0.85610   1.000
    O865    O    0.86806   0.26336   0.85614   1.000
    O866    O    0.96530   0.59288   0.85618   1.000
    O867    O    0.46528   0.59288   0.85621   1.000
    O868    O    0.68815   0.33059   0.88879   1.000
    O869    O    0.18814   0.33059   0.88879   1.000
    O870    O    0.64518   0.55826   0.88880   1.000
    O871    O    0.14517   0.55826   0.88881   1.000
    O872    O    0.31655   0.26783   0.89214   1.000
    O873    O    0.81656   0.26783   0.89214   1.000
    O874    O    0.01678   0.62439   0.89217   1.000
    O875    O    0.51678   0.62439   0.89219   1.000
    O876    O    0.70952   0.74667   0.92890   1.000
    O877    O    0.20951   0.74667   0.92890   1.000
    O878    O    0.12384   0.18225   0.92891   1.000
    O879    O    0.62385   0.18225   0.92891   1.000
    O880    O    0.69678   0.58940   0.92395   1.000
    O881    O    0.64185   0.62308   0.92934   1.000
    O882    O    0.63655   0.33495   0.92431   1.000
    O883    O    0.69148   0.30630   0.92935   1.000
    O884    O    0.13654   0.33495   0.92432   1.000
    O885    O    0.19146   0.30630   0.92935   1.000
    O886    O    0.19677   0.58940   0.92431   1.000
    O887    O    0.14184   0.62308   0.92935   1.000
    O888    O    0.31577   0.24725   0.92825   1.000
    O889    O    0.25564   0.27493   0.93103   1.000
    O890    O    0.81578   0.24725   0.92828   1.000
    O891    O    0.75565   0.27493   0.93103   1.000
    O892    O    0.01754   0.68109   0.92830   1.000
    O893    O    0.07768   0.65614   0.93104   1.000
    O894    O    0.51755   0.68109   0.92832   1.000
    O895    O    0.57769   0.65614   0.93105   1.000
    O896    O    0.26336   0.72243   0.94232   1.000
    O897    O    0.76337   0.72243   0.94232   1.000
    O898    O    0.06998   0.21991   0.94234   1.000
    O899    O    0.56999   0.21991   0.94234   1.000
    O900    O    0.19022   0.28132   0.97188   1.000
    O901    O    0.69024   0.28133   0.97188   1.000
    O902    O    0.14309   0.69056   0.97189   1.000
    O903    O    0.64310   0.69056   0.97189   1.000
    O904    O    0.24833   0.77967   0.97694   1.000
    O905    O    0.19842   0.73583   0.97837   1.000
    O906    O    0.74834   0.77967   0.97694   1.000
    O907    O    0.69843   0.73583   0.97837   1.000
    O908    O    0.08501   0.19729   0.97696   1.000
    O909    O    0.13491   0.24253   0.97837   1.000
    O910    O    0.58502   0.19729   0.97696   1.000
    O911    O    0.63492   0.24253   0.97837   1.000
loop_
    _geom_bond_atom_site_label_1
    _geom_bond_atom_site_label_2
    _geom_bond_distance
    _geom_bond_site_symmetry_2
    _ccdc_geom_bond_type
    C387   O432      0.67969      .   S
    C187   O432      0.67969      .   S
    C386   O433      0.67969      .   S
    C186   O433      0.67969      .   S
    C405   O434      0.67990      .   S
    C235   O434      0.67990      .   S
    C404   O435      0.67990      .   S
    C234   O435      0.67990      .   S
    C187   O436      0.68138      .   S
    C385   O436      0.68138      .   S
    C187   O437      0.67762      .   S
    C389   O437      0.67762      .   S
    C187   O438      0.78316      .   S
    C309   O438      0.78316      .   S
    C186   O439      0.68138      .   S
    C384   O439      0.68138      .   S
    C186   O440      0.67761      .   S
    C388   O440      0.67761      .   S
    C186   O441      0.78316      .   S
    C308   O441      0.78316      .   S
    C234   O442      0.68160      .   S
    C402   O442      0.68160      .   S
    C234   O443      0.67742      .   S
    C406   O443      0.67742      .   S
    C234   O444      0.78332      .   S
    C302   O444      0.78332      .   S
    C235   O445      0.68160      .   S
    C403   O445      0.68160      .   S
    C235   O446      0.67742      .   S
    C407   O446      0.67742      .   S
    C235   O447      0.78331      .   S
    C303   O447      0.78331      .   S
    C185   O448      0.70076      .   S
    C183   O448      0.70076      .   S
    C185   O449      0.70303      .   S
    C177   O449      0.70303      .   S
    C185   O450      0.77275      .   S
    C309   O450      0.77275      .   S
    C232   O451      0.70034      .   S
    C230   O451      0.70034      .   S
    C232   O452      0.70280      .   S
    C224   O452      0.70280      .   S
    C232   O453      0.77289      .   S
    C302   O453      0.77289      .   S
    C233   O454      0.70034      .   S
    C231   O454      0.70034      .   S
    C233   O455      0.70280      .   S
    C225   O455      0.70280      .   S
    C233   O456      0.77290      .   S
    C303   O456      0.77290      .   S
    C184   O457      0.70071      .   S
    C182   O457      0.70071      .   S
    C184   O458      0.70220      .   S
    C176   O458      0.70220      .   S
    C184   O459      0.77302      .   S
    C308   O459      0.77302      .   S
    C51    O460      0.54265      .   S
    C183   O460      0.54265      .   S
    C50    O461      0.54265      .   S
    C182   O461      0.54265      .   S
    C75    O462      0.54269      .   S
    C231   O462      0.54269      .   S
    C74    O463      0.54269  1_655   S
    C230   O463      0.54269      .   S
    C70    O464      0.54439      .   S
    C224   O464      0.54439      .   S
    C71    O465      0.54439      .   S
    C225   O465      0.54439      .   S
    C46    O466      0.54429      .   S
    C176   O466      0.54429      .   S
    C47    O467      0.54438      .   S
    C177   O467      0.54438      .   S
    C230   O468      0.69634      .   S
    C223   O468      0.69634  1_655   S
    C231   O469      0.69641      .   S
    C222   O469      0.69641      .   S
    C183   O470      0.69616      .   S
    C175   O470      0.69616      .   S
    C182   O471      0.69606      .   S
    C174   O471      0.69606      .   S
    C176   O472      0.69623      .   S
    C178   O472      0.69623      .   S
    C225   O473      0.69570      .   S
    C227   O473      0.69570      .   S
    C224   O474      0.69570      .   S
    C226   O474      0.69570      .   S
    C177   O475      0.69575      .   S
    C179   O475      0.69575      .   S
    C174   O476      0.54414      .   S
    C44    O476      0.54414      .   S
    C174   O477      0.70022      .   S
    C180   O477      0.70022      .   S
    C175   O478      0.54412      .   S
    C45    O478      0.54412      .   S
    C175   O479      0.70012      .   S
    C181   O479      0.70012      .   S
    C222   O480      0.54414      .   S
    C68    O480      0.54414      .   S
    C222   O481      0.70016      .   S
    C229   O481      0.70016      .   S
    C223   O482      0.54414      .   S
    C69    O482      0.54414      .   S
    C223   O483      0.70008  1_655   S
    C228   O483      0.70008      .   S
    C226   O484      0.54416      .   S
    C72    O484      0.54416      .   S
    C226   O485      0.70108      .   S
    C228   O485      0.70108      .   S
    C227   O486      0.54416      .   S
    C73    O486      0.54416      .   S
    C227   O487      0.70108      .   S
    C229   O487      0.70108      .   S
    C178   O488      0.54439      .   S
    C48    O488      0.54439      .   S
    C178   O489      0.70111      .   S
    C180   O489      0.70111      .   S
    C179   O490      0.54416      .   S
    C49    O490      0.54416      .   S
    C179   O491      0.70104      .   S
    C181   O491      0.70104      .   S
    C395   O492      0.67744      .   S
    C203   O492      0.67744      .   S
    C394   O493      0.67744      .   S
    C202   O493      0.67744      .   S
    C412   O494      0.67742      .   S
    C250   O494      0.67742      .   S
    C413   O495      0.67742      .   S
    C251   O495      0.67742      .   S
    C229   O496      0.74720      .   S
    C220   O496      0.74720      .   S
    C228   O497      0.74713      .   S
    C221   O497      0.74713  1_655   S
    C181   O498      0.74731      .   S
    C173   O498      0.74731      .   S
    C180   O499      0.74721      .   S
    C172   O499      0.74721      .   S
    C393   O500      0.67988      .   S
    C203   O500      0.67988      .   S
    C411   O501      0.67991      .   S
    C251   O501      0.67991      .   S
    C410   O502      0.67991      .   S
    C250   O502      0.67991      .   S
    C392   O503      0.67990      .   S
    C202   O503      0.67990      .   S
    C417   O504      0.67984      .   S
    C267   O504      0.67984      .   S
    C416   O505      0.67984      .   S
    C266   O505      0.67984      .   S
    C362   O506      0.67992      .   S
    C122   O506      0.67992      .   S
    C363   O507      0.67992      .   S
    C123   O507      0.67992      .   S
    C202   O508      0.68161      .   S
    C390   O508      0.68161      .   S
    C202   O509      0.78308      .   S
    C311   O509      0.78308      .   S
    C203   O510      0.68161      .   S
    C391   O510      0.68161      .   S
    C203   O511      0.78303      .   S
    C310   O511      0.78303  1_455   S
    C250   O512      0.68161      .   S
    C408   O512      0.68161      .   S
    C250   O513      0.78327      .   S
    C300   O513      0.78327  1_545   S
    C251   O514      0.68162      .   S
    C409   O514      0.68162      .   S
    C251   O515      0.78327      .   S
    C301   O515      0.78327  1_545   S
    C221   O516      0.64072  1_655   S
    C340   O516      0.64072      .   S
    C221   O517      0.63584      .   S
    C343   O517      0.63584      .   S
    C220   O518      0.64081      .   S
    C341   O518      0.64081      .   S
    C220   O519      0.63584      .   S
    C342   O519      0.63584      .   S
    C172   O520      0.64082      .   S
    C328   O520      0.64082      .   S
    C172   O521      0.63585      .   S
    C330   O521      0.63585      .   S
    C173   O522      0.64078      .   S
    C329   O522      0.64078      .   S
    C173   O523      0.63580      .   S
    C331   O523      0.63580      .   S
    C58    O524      0.54260      .   S
    C198   O524      0.54260      .   S
    C59    O525      0.54260      .   S
    C199   O525      0.54260      .   S
    C82    O526      0.54257      .   S
    C246   O526      0.54257      .   S
    C83    O527      0.54257      .   S
    C247   O527      0.54257      .   S
    C341   O528      0.98231      .   S
    C7     O528      0.98231      .   S
    C340   O529      0.98232      .   S
    C6     O529      0.98232  1_655   S
    C328   O530      0.98232      .   S
    C8     O530      0.98232      .   S
    C329   O531      0.98231      .   S
    C9     O531      0.98231      .   S
    C331   O532      0.99007      .   S
    C6     O532      0.99007      .   S
    C330   O533      0.99006      .   S
    C7     O533      0.99006      .   S
    C342   O534      0.99008      .   S
    C8     O534      0.99008      .   S
    C343   O535      0.99007      .   S
    C9     O535      0.99007      .   S
    C52    O536      0.54415      .   S
    C190   O536      0.54415      .   S
    C53    O537      0.54414      .   S
    C191   O537      0.54414      .   S
    C77    O538      0.54413      .   S
    C239   O538      0.54413      .   S
    C76    O539      0.54413      .   S
    C238   O539      0.54413      .   S
    C364   O540      0.67746      .   S
    C122   O540      0.67746      .   S
    C419   O541      0.67746      .   S
    C267   O541      0.67746      .   S
    C365   O542      0.67746      .   S
    C123   O542      0.67746      .   S
    C418   O543      0.67744      .   S
    C266   O543      0.67744      .   S
    C267   O544      0.78316      .   S
    C311   O544      0.78316      .   S
    C267   O545      0.68168      .   S
    C415   O545      0.68168      .   S
    C266   O546      0.78311      .   S
    C310   O546      0.78311      .   S
    C266   O547      0.68166      .   S
    C414   O547      0.68166      .   S
    C122   O548      0.78326      .   S
    C300   O548      0.78326      .   S
    C122   O549      0.68154      .   S
    C360   O549      0.68154      .   S
    C123   O550      0.78326      .   S
    C301   O550      0.78326      .   S
    C123   O551      0.68154      .   S
    C361   O551      0.68154      .   S
    C199   O552      0.69613      .   S
    C191   O552      0.69613      .   S
    C199   O553      0.70069      .   S
    C201   O553      0.70069      .   S
    C198   O554      0.69612      .   S
    C190   O554      0.69612      .   S
    C198   O555      0.70069      .   S
    C200   O555      0.70069      .   S
    C246   O556      0.69613      .   S
    C238   O556      0.69613      .   S
    C246   O557      0.70053      .   S
    C248   O557      0.70053      .   S
    C247   O558      0.69613      .   S
    C239   O558      0.69613      .   S
    C247   O559      0.70072      .   S
    C249   O559      0.70072      .   S
    C191   O560      0.70014      .   S
    C197   O560      0.70014      .   S
    C190   O561      0.70010      .   S
    C196   O561      0.70010      .   S
    C239   O562      0.70018      .   S
    C245   O562      0.70018      .   S
    C238   O563      0.70018      .   S
    C244   O563      0.70018      .   S
    C311   O564      0.77288      .   S
    C201   O564      0.77288      .   S
    C311   O565      0.77288      .   S
    C264   O565      0.77288      .   S
    C310   O566      0.77285      .   S
    C200   O566      0.77285      .   S
    C310   O567      0.77282  1_455   S
    C265   O567      0.77282      .   S
    C301   O568      0.77306  1_545   S
    C249   O568      0.77306      .   S
    C301   O569      0.77288      .   S
    C121   O569      0.77288      .   S
    C300   O570      0.77251  1_545   S
    C248   O570      0.77251      .   S
    C300   O571      0.77288      .   S
    C120   O571      0.77288      .   S
    C201   O572      0.70276      .   S
    C193   O572      0.70276      .   S
    C200   O573      0.70276      .   S
    C192   O573      0.70276      .   S
    C248   O574      0.70349      .   S
    C240   O574      0.70349      .   S
    C249   O575      0.70274      .   S
    C241   O575      0.70274      .   S
    C346   O576      0.99342      .   S
    C6     O576      0.99342  1_655   S
    C346   O577      0.63849      .   S
    C236   O577      0.63849      .   S
    C347   O578      0.98991      .   S
    C7     O578      0.98991      .   S
    C347   O579      0.63580      .   S
    C237   O579      0.63580      .   S
    C335   O580      0.98986      .   S
    C9     O580      0.98986      .   S
    C335   O581      0.63583      .   S
    C189   O581      0.63583      .   S
    C334   O582      0.98987      .   S
    C8     O582      0.98987      .   S
    C334   O583      0.63582      .   S
    C188   O583      0.63582      .   S
    C18    O584      0.54260      .   S
    C118   O584      0.54260      .   S
    C19    O585      0.53941  1_455   S
    C119   O585      0.53941      .   S
    C90    O586      0.54264      .   S
    C262   O586      0.54264      .   S
    C91    O587      0.54264      .   S
    C263   O587      0.54264      .   S
    C6     O588      0.98231      .   S
    C325   O588      0.98231      .   S
    C7     O589      0.98236      .   S
    C324   O589      0.98236      .   S
    C9     O590      0.98227      .   S
    C337   O590      0.98227      .   S
    C8     O591      0.98227      .   S
    C336   O591      0.98227      .   S
    C196   O592      0.74701      .   S
    C188   O592      0.74701      .   S
    C196   O593      0.70125      .   S
    C194   O593      0.70125      .   S
    C197   O594      0.74718      .   S
    C189   O594      0.74718      .   S
    C197   O595      0.70104      .   S
    C195   O595      0.70104      .   S
    C245   O596      0.74724      .   S
    C237   O596      0.74724      .   S
    C245   O597      0.70105      .   S
    C243   O597      0.70105      .   S
    C244   O598      0.74723      .   S
    C236   O598      0.74723      .   S
    C244   O599      0.70105      .   S
    C242   O599      0.70105      .   S
    C236   O600      0.64024      .   S
    C344   O600      0.64024      .   S
    C237   O601      0.64085      .   S
    C345   O601      0.64085      .   S
    C188   O602      0.64079      .   S
    C332   O602      0.64079      .   S
    C189   O603      0.64079      .   S
    C333   O603      0.64079      .   S
    C193   O604      0.69572      .   S
    C195   O604      0.69572      .   S
    C193   O605      0.54437      .   S
    C54    O605      0.54437      .   S
    C192   O606      0.69570      .   S
    C194   O606      0.69570      .   S
    C192   O607      0.54421  1_455   S
    C55    O607      0.54421      .   S
    C240   O608      0.69577      .   S
    C242   O608      0.69577      .   S
    C240   O609      0.54439      .   S
    C78    O609      0.54439      .   S
    C241   O610      0.69577      .   S
    C243   O610      0.69577      .   S
    C241   O611      0.54439      .   S
    C79    O611      0.54439      .   S
    C195   O612      0.54415      .   S
    C57    O612      0.54415      .   S
    C194   O613      0.54415      .   S
    C56    O613      0.54415      .   S
    C242   O614      0.54411      .   S
    C80    O614      0.54411      .   S
    C243   O615      0.54410      .   S
    C81    O615      0.54410      .   S
    C118   O616      0.70072      .   S
    C120   O616      0.70072      .   S
    C118   O617      0.69611      .   S
    C111   O617      0.69611      .   S
    C119   O618      0.70072      .   S
    C121   O618      0.70072      .   S
    C119   O619      0.69604      .   S
    C110   O619      0.69604  1_455   S
    C262   O620      0.70071      .   S
    C264   O620      0.70071      .   S
    C262   O621      0.69609      .   S
    C254   O621      0.69609      .   S
    C263   O622      0.70071      .   S
    C265   O622      0.70071      .   S
    C263   O623      0.69609      .   S
    C255   O623      0.69609      .   S
    C265   O624      0.70277      .   S
    C257   O624      0.70277      .   S
    C264   O625      0.70277      .   S
    C256   O625      0.70277      .   S
    C121   O626      0.70279      .   S
    C113   O626      0.70279      .   S
    C120   O627      0.70279      .   S
    C112   O627      0.70279      .   S
    C344   O628      0.98282      .   S
    C10    O628      0.98282      .   S
    C345   O629      0.98229      .   S
    C11    O629      0.98229      .   S
    C332   O630      0.98220      .   S
    C10    O630      0.98220      .   S
    C333   O631      0.98220      .   S
    C11    O631      0.98220      .   S
    C10    O632      0.98997      .   S
    C338   O632      0.98997      .   S
    C10    O633      0.98998      .   S
    C326   O633      0.98998      .   S
    C11    O634      0.98997      .   S
    C339   O634      0.98997      .   S
    C11    O635      0.98998      .   S
    C327   O635      0.98998      .   S
    C337   O636      0.64080      .   S
    C205   O636      0.64080      .   S
    C324   O637      0.64081      .   S
    C157   O637      0.64081      .   S
    C325   O638      0.64072      .   S
    C156   O638      0.64072  1_455   S
    C336   O639      0.64080      .   S
    C204   O639      0.64080      .   S
    C13    O640      0.54414      .   S
    C111   O640      0.54414      .   S
    C12    O641      0.54414      .   S
    C110   O641      0.54414      .   S
    C85    O642      0.54415      .   S
    C255   O642      0.54415      .   S
    C84    O643      0.54415      .   S
    C254   O643      0.54415      .   S
    C110   O644      0.70010  1_455   S
    C117   O644      0.70010      .   S
    C111   O645      0.70018      .   S
    C116   O645      0.70018      .   S
    C255   O646      0.70015      .   S
    C261   O646      0.70015      .   S
    C254   O647      0.70014      .   S
    C260   O647      0.70014      .   S
    C257   O648      0.54422  1_655   S
    C86    O648      0.54422      .   S
    C257   O649      0.69572      .   S
    C259   O649      0.69572      .   S
    C256   O650      0.54439      .   S
    C87    O650      0.54439      .   S
    C256   O651      0.69496      .   S
    C258   O651      0.69496      .   S
    C112   O652      0.54438      .   S
    C14    O652      0.54438      .   S
    C112   O653      0.69574      .   S
    C114   O653      0.69574      .   S
    C113   O654      0.54438      .   S
    C15    O654      0.54438      .   S
    C113   O655      0.69573      .   S
    C115   O655      0.69573      .   S
    C157   O656      0.63583      .   S
    C327   O656      0.63583      .   S
    C157   O657      0.74719      .   S
    C164   O657      0.74719      .   S
    C156   O658      0.63584      .   S
    C326   O658      0.63584      .   S
    C156   O659      0.74711  1_455   S
    C165   O659      0.74711      .   S
    C205   O660      0.63583      .   S
    C339   O660      0.63583      .   S
    C205   O661      0.74719      .   S
    C213   O661      0.74719      .   S
    C204   O662      0.63583      .   S
    C338   O662      0.63583      .   S
    C204   O663      0.74719      .   S
    C212   O663      0.74719      .   S
    C117   O664      0.70108      .   S
    C115   O664      0.70108      .   S
    C117   O665      0.74670      .   S
    C108   O665      0.74670  1_455   S
    C116   O666      0.70108      .   S
    C114   O666      0.70108      .   S
    C116   O667      0.74721      .   S
    C109   O667      0.74721      .   S
    C261   O668      0.70104      .   S
    C259   O668      0.70104      .   S
    C261   O669      0.74715      .   S
    C253   O669      0.74715      .   S
    C260   O670      0.70119      .   S
    C258   O670      0.70119      .   S
    C260   O671      0.74715      .   S
    C252   O671      0.74715      .   S
    C258   O672      0.54475      .   S
    C88    O672      0.54475      .   S
    C259   O673      0.54413      .   S
    C89    O673      0.54413      .   S
    C114   O674      0.54412      .   S
    C16    O674      0.54412      .   S
    C115   O675      0.54412      .   S
    C17    O675      0.54412      .   S
    C40    O676      0.54416      .   S
    C162   O676      0.54416      .   S
    C41    O677      0.54416      .   S
    C163   O677      0.54416      .   S
    C64    O678      0.54412      .   S
    C210   O678      0.54412      .   S
    C65    O679      0.54412      .   S
    C211   O679      0.54412      .   S
    C163   O680      0.70105      .   S
    C165   O680      0.70105      .   S
    C163   O681      0.69570      .   S
    C161   O681      0.69570      .   S
    C162   O682      0.70105      .   S
    C164   O682      0.70105      .   S
    C162   O683      0.69570      .   S
    C160   O683      0.69570      .   S
    C210   O684      0.70106      .   S
    C212   O684      0.70106      .   S
    C210   O685      0.69570      .   S
    C208   O685      0.69570      .   S
    C211   O686      0.70106      .   S
    C213   O686      0.70106      .   S
    C211   O687      0.69569      .   S
    C209   O687      0.69569      .   S
    C164   O688      0.70018      .   S
    C159   O688      0.70018      .   S
    C165   O689      0.70010      .   S
    C158   O689      0.70010  1_455   S
    C212   O690      0.69953      .   S
    C206   O690      0.69953      .   S
    C213   O691      0.69953      .   S
    C207   O691      0.69953      .   S
    C314   O692      0.63561      .   S
    C108   O692      0.63561      .   S
    C314   O693      0.99010      .   S
    C4     O693      0.99010      .   S
    C315   O694      0.63584      .   S
    C109   O694      0.63584      .   S
    C315   O695      0.99010      .   S
    C5     O695      0.99010      .   S
    C351   O696      0.63582      .   S
    C253   O696      0.63582      .   S
    C351   O697      0.98982      .   S
    C5     O697      0.98982      .   S
    C350   O698      0.63582      .   S
    C252   O698      0.63582      .   S
    C350   O699      0.98982      .   S
    C4     O699      0.98982      .   S
    C108   O700      0.64142  1_455   S
    C313   O700      0.64142      .   S
    C109   O701      0.64053      .   S
    C312   O701      0.64053      .   S
    C252   O702      0.64077      .   S
    C348   O702      0.64077      .   S
    C253   O703      0.64077      .   S
    C349   O703      0.64077      .   S
    C38    O704      0.54438      .   S
    C160   O704      0.54438      .   S
    C39    O705      0.54438      .   S
    C161   O705      0.54438      .   S
    C62    O706      0.54422      .   S
    C209   O706      0.54422  1_655   S
    C63    O707      0.54438      .   S
    C208   O707      0.54438      .   S
    C160   O708      0.70278      .   S
    C168   O708      0.70278      .   S
    C161   O709      0.70278      .   S
    C169   O709      0.70278      .   S
    C208   O710      0.70279      .   S
    C216   O710      0.70279      .   S
    C209   O711      0.70279      .   S
    C217   O711      0.70279      .   S
    C206   O712      0.54397      .   S
    C60    O712      0.54397      .   S
    C206   O713      0.69693      .   S
    C214   O713      0.69693      .   S
    C207   O714      0.54397      .   S
    C61    O714      0.54397      .   S
    C207   O715      0.69693      .   S
    C215   O715      0.69693      .   S
    C158   O716      0.54415      .   S
    C36    O716      0.54415      .   S
    C158   O717      0.69606  1_455   S
    C167   O717      0.69606      .   S
    C159   O718      0.54415      .   S
    C37    O718      0.54415      .   S
    C159   O719      0.69614      .   S
    C166   O719      0.69614      .   S
    C312   O720      0.98258      .   S
    C1     O720      0.98258      .   S
    C313   O721      0.98221      .   S
    C0     O721      0.98221  1_455   S
    C349   O722      0.98222      .   S
    C3     O722      0.98222      .   S
    C348   O723      0.98222      .   S
    C2     O723      0.98222      .   S
    C4     O724      0.98223      .   S
    C320   O724      0.98223      .   S
    C4     O725      0.98228      .   S
    C356   O725      0.98228      .   S
    C5     O726      0.98224      .   S
    C321   O726      0.98224      .   S
    C5     O727      0.98230      .   S
    C357   O727      0.98230      .   S
    C33    O728      0.54416      .   S
    C147   O728      0.54416      .   S
    C32    O729      0.54415      .   S
    C146   O729      0.54415      .   S
    C104   O730      0.54419      .   S
    C290   O730      0.54419      .   S
    C105   O731      0.54386      .   S
    C291   O731      0.54386      .   S
    C320   O732      0.64080      .   S
    C140   O732      0.64080      .   S
    C321   O733      0.64080      .   S
    C141   O733      0.64080      .   S
    C356   O734      0.64080      .   S
    C284   O734      0.64080      .   S
    C357   O735      0.64060      .   S
    C285   O735      0.64060      .   S
    C102   O736      0.54438      .   S
    C288   O736      0.54438      .   S
    C103   O737      0.54438      .   S
    C289   O737      0.54438      .   S
    C30    O738      0.54427      .   S
    C145   O738      0.54427      .   S
    C31    O739      0.54419      .   S
    C144   O739      0.54419  1_455   S
    C168   O740      0.70071      .   S
    C166   O740      0.70071      .   S
    C168   O741      0.77294      .   S
    C306   O741      0.77294  1_545   S
    C169   O742      0.70071      .   S
    C167   O742      0.70071      .   S
    C169   O743      0.77294      .   S
    C307   O743      0.77294  1_545   S
    C216   O744      0.70070      .   S
    C214   O744      0.70070      .   S
    C216   O745      0.77294      .   S
    C305   O745      0.77294      .   S
    C217   O746      0.70071      .   S
    C215   O746      0.70071      .   S
    C217   O747      0.77285      .   S
    C304   O747      0.77285  1_455   S
    C166   O748      0.54264      .   S
    C42    O748      0.54264      .   S
    C167   O749      0.53950      .   S
    C43    O749      0.53950  1_455   S
    C214   O750      0.54262      .   S
    C66    O750      0.54262      .   S
    C215   O751      0.54261      .   S
    C67    O751      0.54261      .   S
    C291   O752      0.69595      .   S
    C289   O752      0.69595      .   S
    C291   O753      0.70112      .   S
    C293   O753      0.70112      .   S
    C147   O754      0.69579      .   S
    C145   O754      0.69579      .   S
    C147   O755      0.70103      .   S
    C149   O755      0.70103      .   S
    C146   O756      0.69573      .   S
    C144   O756      0.69573      .   S
    C146   O757      0.70103      .   S
    C148   O757      0.70103      .   S
    C290   O758      0.69570      .   S
    C288   O758      0.69570      .   S
    C290   O759      0.70104      .   S
    C292   O759      0.70104      .   S
    C145   O760      0.70279      .   S
    C153   O760      0.70279      .   S
    C288   O761      0.70281      .   S
    C296   O761      0.70281      .   S
    C289   O762      0.70282      .   S
    C297   O762      0.70282      .   S
    C144   O763      0.70278      .   S
    C152   O763      0.70278      .   S
    C141   O764      0.74721      .   S
    C149   O764      0.74721      .   S
    C141   O765      0.63584      .   S
    C323   O765      0.63584      .   S
    C140   O766      0.74721      .   S
    C148   O766      0.74721      .   S
    C140   O767      0.63584      .   S
    C322   O767      0.63584      .   S
    C285   O768      0.74739      .   S
    C293   O768      0.74739      .   S
    C285   O769      0.63567      .   S
    C359   O769      0.63567      .   S
    C284   O770      0.74726      .   S
    C292   O770      0.74726      .   S
    C284   O771      0.63585      .   S
    C358   O771      0.63585      .   S
    C148   O772      0.70015      .   S
    C142   O772      0.70015      .   S
    C149   O773      0.70016      .   S
    C143   O773      0.70016      .   S
    C292   O774      0.70020      .   S
    C286   O774      0.70020      .   S
    C293   O775      0.70021      .   S
    C287   O775      0.70021      .   S
    C397   O776      0.68157      .   S
    C219   O776      0.68157      .   S
    C396   O777      0.68156      .   S
    C218   O777      0.68156      .   S
    C379   O778      0.68159      .   S
    C171   O778      0.68159      .   S
    C378   O779      0.68159      .   S
    C170   O779      0.68159      .   S
    C1     O780      0.98976      .   S
    C359   O780      0.98976      .   S
    C1     O781      0.99003      .   S
    C318   O781      0.99003      .   S
    C1     O782      0.98241      .   S
    C353   O782      0.98241      .   S
    C0     O783      0.99010      .   S
    C358   O783      0.99010      .   S
    C0     O784      0.98989  1_455   S
    C319   O784      0.98989      .   S
    C0     O785      0.98243      .   S
    C352   O785      0.98243      .   S
    C3     O786      0.98991      .   S
    C323   O786      0.98991      .   S
    C3     O787      0.99008      .   S
    C355   O787      0.99008      .   S
    C3     O788      0.98185      .   S
    C317   O788      0.98185      .   S
    C2     O789      0.98992      .   S
    C322   O789      0.98992      .   S
    C2     O790      0.99009      .   S
    C354   O790      0.99009      .   S
    C2     O791      0.98223      .   S
    C316   O791      0.98223      .   S
    C296   O792      0.77297      .   S
    C306   O792      0.77297      .   S
    C296   O793      0.70070      .   S
    C294   O793      0.70070      .   S
    C297   O794      0.77296      .   S
    C307   O794      0.77296      .   S
    C297   O795      0.70070      .   S
    C295   O795      0.70070      .   S
    C152   O796      0.77288      .   S
    C304   O796      0.77288      .   S
    C152   O797      0.70068      .   S
    C150   O797      0.70068      .   S
    C153   O798      0.77288      .   S
    C305   O798      0.77288      .   S
    C153   O799      0.70068      .   S
    C151   O799      0.70068      .   S
    C306   O800      0.78335  1_545   S
    C170   O800      0.78335      .   S
    C306   O801      0.78319      .   S
    C298   O801      0.78319      .   S
    C307   O802      0.78335  1_545   S
    C171   O802      0.78335      .   S
    C307   O803      0.78320      .   S
    C299   O803      0.78320      .   S
    C305   O804      0.78314      .   S
    C219   O804      0.78314      .   S
    C305   O805      0.78312      .   S
    C154   O805      0.78312      .   S
    C304   O806      0.78315      .   S
    C218   O806      0.78315      .   S
    C304   O807      0.78301  1_455   S
    C155   O807      0.78301      .   S
    C143   O808      0.69613      .   S
    C151   O808      0.69613      .   S
    C143   O809      0.54414      .   S
    C29    O809      0.54414      .   S
    C142   O810      0.69614      .   S
    C150   O810      0.69614      .   S
    C142   O811      0.54414      .   S
    C28    O811      0.54414      .   S
    C286   O812      0.69615      .   S
    C294   O812      0.69615      .   S
    C286   O813      0.54393      .   S
    C100   O813      0.54393      .   S
    C287   O814      0.69614      .   S
    C295   O814      0.69614      .   S
    C287   O815      0.54393      .   S
    C101   O815      0.54393      .   S
    C150   O816      0.54260      .   S
    C34    O816      0.54260      .   S
    C151   O817      0.54260      .   S
    C35    O817      0.54260      .   S
    C295   O818      0.54255      .   S
    C107   O818      0.54255      .   S
    C294   O819      0.54256      .   S
    C106   O819      0.54256      .   S
    C170   O820      0.67747      .   S
    C382   O820      0.67747      .   S
    C170   O821      0.67990      .   S
    C380   O821      0.67990      .   S
    C171   O822      0.67704      .   S
    C383   O822      0.67704      .   S
    C171   O823      0.67990      .   S
    C381   O823      0.67990      .   S
    C218   O824      0.67745      .   S
    C400   O824      0.67745      .   S
    C218   O825      0.67914      .   S
    C398   O825      0.67914      .   S
    C219   O826      0.67745      .   S
    C401   O826      0.67745      .   S
    C219   O827      0.67914      .   S
    C399   O827      0.67914      .   S
    C319   O828      0.63581      .   S
    C125   O828      0.63581      .   S
    C318   O829      0.63579      .   S
    C124   O829      0.63579      .   S
    C354   O830      0.63587      .   S
    C268   O830      0.63587      .   S
    C355   O831      0.63583      .   S
    C269   O831      0.63583      .   S
    C317   O832      0.64110      .   S
    C125   O832      0.64110      .   S
    C353   O833      0.64079      .   S
    C268   O833      0.64079      .   S
    C352   O834      0.64074      .   S
    C269   O834      0.64074  1_655   S
    C316   O835      0.64072      .   S
    C124   O835      0.64072      .   S
    C426   O836      0.68160      .   S
    C298   O836      0.68160      .   S
    C427   O837      0.68159      .   S
    C299   O837      0.68159      .   S
    C372   O838      0.68160      .   S
    C154   O838      0.68160      .   S
    C373   O839      0.68160      .   S
    C155   O839      0.68160      .   S
    C124   O840      0.74735      .   S
    C132   O840      0.74735      .   S
    C125   O841      0.74727      .   S
    C133   O841      0.74727      .   S
    C269   O842      0.74719  1_655   S
    C276   O842      0.74719      .   S
    C268   O843      0.74726      .   S
    C277   O843      0.74726      .   S
    C299   O844      0.67992      .   S
    C429   O844      0.67992      .   S
    C299   O845      0.67739      .   S
    C431   O845      0.67739      .   S
    C298   O846      0.67992      .   S
    C428   O846      0.67992      .   S
    C298   O847      0.67739      .   S
    C430   O847      0.67739      .   S
    C154   O848      0.67989      .   S
    C374   O848      0.67989      .   S
    C154   O849      0.67741      .   S
    C376   O849      0.67741      .   S
    C155   O850      0.67989      .   S
    C375   O850      0.67989      .   S
    C155   O851      0.67741      .   S
    C377   O851      0.67741      .   S
    C132   O852      0.70104      .   S
    C130   O852      0.70104      .   S
    C132   O853      0.70015      .   S
    C126   O853      0.70015      .   S
    C133   O854      0.70103      .   S
    C131   O854      0.70103      .   S
    C133   O855      0.70013      .   S
    C127   O855      0.70013      .   S
    C276   O856      0.70108      .   S
    C274   O856      0.70108      .   S
    C276   O857      0.70007      .   S
    C271   O857      0.70007  1_655   S
    C277   O858      0.70105      .   S
    C275   O858      0.70105      .   S
    C277   O859      0.70017      .   S
    C270   O859      0.70017      .   S
    C24    O860      0.54413      .   S
    C130   O860      0.54413      .   S
    C25    O861      0.54414      .   S
    C131   O861      0.54414      .   S
    C97    O862      0.54414      .   S
    C275   O862      0.54414      .   S
    C96    O863      0.54415      .   S
    C274   O863      0.54415      .   S
    C20    O864      0.54429      .   S
    C126   O864      0.54429      .   S
    C21    O865      0.54414      .   S
    C127   O865      0.54414      .   S
    C93    O866      0.54438      .   S
    C271   O866      0.54438      .   S
    C92    O867      0.54412      .   S
    C270   O867      0.54412      .   S
    C131   O868      0.69577      .   S
    C129   O868      0.69577      .   S
    C130   O869      0.69577      .   S
    C128   O869      0.69577      .   S
    C275   O870      0.69561      .   S
    C273   O870      0.69561      .   S
    C274   O871      0.69572      .   S
    C272   O871      0.69572      .   S
    C126   O872      0.69617      .   S
    C134   O872      0.69617      .   S
    C127   O873      0.69618      .   S
    C135   O873      0.69618      .   S
    C271   O874      0.69598  1_655   S
    C278   O874      0.69598      .   S
    C270   O875      0.69615      .   S
    C279   O875      0.69615      .   S
    C425   O876      0.67744      .   S
    C283   O876      0.67744      .   S
    C424   O877      0.67744      .   S
    C282   O877      0.67744      .   S
    C370   O878      0.67741      .   S
    C138   O878      0.67741      .   S
    C371   O879      0.67741      .   S
    C139   O879      0.67741      .   S
    C273   O880      0.54170      .   S
    C95    O880      0.54170      .   S
    C273   O881      0.70277      .   S
    C281   O881      0.70277      .   S
    C129   O882      0.54437      .   S
    C23    O882      0.54437      .   S
    C129   O883      0.70279      .   S
    C137   O883      0.70279      .   S
    C128   O884      0.54438      .   S
    C22    O884      0.54438      .   S
    C128   O885      0.70281      .   S
    C136   O885      0.70281      .   S
    C272   O886      0.54438      .   S
    C94    O886      0.54438      .   S
    C272   O887      0.70280      .   S
    C280   O887      0.70280      .   S
    C134   O888      0.54205      .   S
    C26    O888      0.54205      .   S
    C134   O889      0.70070      .   S
    C136   O889      0.70070      .   S
    C135   O890      0.54257      .   S
    C27    O890      0.54257      .   S
    C135   O891      0.70070      .   S
    C137   O891      0.70070      .   S
    C278   O892      0.54258      .   S
    C98    O892      0.54258  1_655   S
    C278   O893      0.70082      .   S
    C280   O893      0.70082      .   S
    C279   O894      0.54261      .   S
    C99    O894      0.54261      .   S
    C279   O895      0.70070      .   S
    C281   O895      0.70070      .   S
    C420   O896      0.68157      .   S
    C282   O896      0.68157      .   S
    C421   O897      0.68157      .   S
    C283   O897      0.68157      .   S
    C366   O898      0.68162      .   S
    C138   O898      0.68162      .   S
    C367   O899      0.68161      .   S
    C139   O899      0.68161      .   S
    C136   O900      0.77306      .   S
    C302   O900      0.77306  1_554   S
    C137   O901      0.77308      .   S
    C303   O901      0.77308  1_554   S
    C280   O902      0.77292      .   S
    C308   O902      0.77292  1_554   S
    C281   O903      0.77292      .   S
    C309   O903      0.77292  1_554   S
    C282   O904      0.67993      .   S
    C422   O904      0.67993      .   S
    C282   O905      0.78342      .   S
    C308   O905      0.78342  1_554   S
    C283   O906      0.67993      .   S
    C423   O906      0.67993      .   S
    C283   O907      0.78342      .   S
    C309   O907      0.78342  1_554   S
    C138   O908      0.67995      .   S
    C368   O908      0.67995      .   S
    C138   O909      0.78322      .   S
    C302   O909      0.78322  1_554   S
    C139   O910      0.67995      .   S
    C369   O910      0.67995      .   S
    C139   O911      0.78323      .   S
    C303   O911      0.78323  1_554   S
