# CIF file generated by openbabel 2.4.90, see http://openbabel.sf.net
data_I
_chemical_name_common ''
_cell_length_a 5.945
_cell_length_b 7.474
_cell_length_c 15.5861
_cell_angle_alpha 89.787
_cell_angle_beta 86.3205
_cell_angle_gamma 89.557
_space_group_name_H-M_alt 'P 1'
_space_group_name_Hall 'P 1'
loop_
    _symmetry_equiv_pos_as_xyz
    x,y,z
loop_
    _atom_site_label
    _atom_site_type_symbol
    _atom_site_fract_x
    _atom_site_fract_y
    _atom_site_fract_z
    _atom_site_occupancy
    N0      N    0.49997   0.50781   0.00002   1.000
    N1      N    0.99997   0.50781   0.50002   1.000
    Zr2     Zr   0.74925   0.00013   0.75021   1.000
    O3      O    0.66679   0.85583   0.82268   1.000
    O4      O    0.83185   0.85613   0.67740   1.000
    O5      O    0.68989   0.14953   0.82511   1.000
    O6      O    0.80902   0.15032   0.67546   1.000
    Zr7     Zr   0.25069   0.01549   0.24982   1.000
    O8      O    0.16810   0.15948   0.32264   1.000
    O9      O    0.19093   0.86530   0.32458   1.000
    O10     O    0.33315   0.15979   0.17736   1.000
    O11     O    0.31006   0.86609   0.17492   1.000
    Zr12    Zr   0.25001   0.39880   0.74992   1.000
    O13     O    0.15757   0.44956   0.68619   1.000
    O14     O    0.16636   0.40353   0.67974   1.000
    O15     O    0.33368   0.40350   0.82031   1.000
    O16     O    0.34208   0.44942   0.81363   1.000
    Zr17    Zr   0.74998   0.61682   0.25011   1.000
    O18     O    0.84240   0.56606   0.31385   1.000
    O19     O    0.83361   0.61209   0.32029   1.000
    O20     O    0.65789   0.56619   0.18640   1.000
    O21     O    0.66629   0.61212   0.17972   1.000
loop_
    _geom_bond_atom_site_label_1
    _geom_bond_atom_site_label_2
    _geom_bond_distance
    _geom_bond_site_symmetry_2
    _ccdc_geom_bond_type
    Zr2    O3        1.61471  1_545   S
    N0     O3        3.87603  1_554   S
    Zr2    O4        1.61765  1_545   S
    N1     O4        3.88311      .   S
    Zr2    O5        1.63853      .   S
    N0     O5        3.93565  1_554   S
    Zr2    O6        1.63925      .   S
    N1     O6        3.93685      .   S
    Zr7    O8        1.61765      .   S
    N1     O8        3.88310  1_655   S
    Zr7    O9        1.63926  1_545   S
    N1     O9        3.93686  1_655   S
    Zr7    O10       1.61470      .   S
    N0     O10       3.87601      .   S
    Zr7    O11       1.63853  1_545   S
    N0     O11       3.93566      .   S
    Zr12   O13       1.22342      .   S
    N1     O13       3.13371  1_655   S
    Zr12   O14       1.23058      .   S
    N1     O14       3.12409  1_655   S
    Zr12   O15       1.23403      .   S
    N0     O15       3.13272  1_554   S
    Zr12   O16       1.22659      .   S
    N0     O16       3.14268  1_554   S
    Zr17   O18       1.22340      .   S
    N1     O18       3.13370      .   S
    Zr17   O19       1.23057      .   S
    N1     O19       3.12408      .   S
    Zr17   O20       1.22660      .   S
    N0     O20       3.14268      .   S
    Zr17   O21       1.23404      .   S
    N0     O21       3.13271      .   S
