# CIF file generated by openbabel 2.4.90, see http://openbabel.sf.net
data_I
_chemical_name_common ''
_cell_length_a 5.945
_cell_length_b 7.474
_cell_length_c 15.5861
_cell_angle_alpha 89.787
_cell_angle_beta 86.3205
_cell_angle_gamma 89.557
_space_group_name_H-M_alt 'P 1'
_space_group_name_Hall 'P 1'
loop_
    _symmetry_equiv_pos_as_xyz
    x,y,z
loop_
    _atom_site_label
    _atom_site_type_symbol
    _atom_site_fract_x
    _atom_site_fract_y
    _atom_site_fract_z
    _atom_site_occupancy
    Zr0     Zr   0.74925   0.00013   0.75021   1.000
    Zr1     Zr   0.25069   0.01549   0.24982   1.000
    Zr2     Zr   0.25001   0.39880   0.74992   1.000
    Zr3     Zr   0.74998   0.61682   0.25011   1.000
    N4      N    0.49997   0.50781   0.00002   1.000
    O5      O    0.41561   0.30410   0.10489   1.000
    O6      O    0.56581   0.51557   0.12269   1.000
    O7      O    0.36942   0.71670   0.10003   1.000
    O8      O    0.58260   0.60742   0.10934   1.000
    O9      O    0.41736   0.40820   0.89070   1.000
    O10     O    0.58434   0.71152   0.89515   1.000
    O11     O    0.63053   0.29892   0.90001   1.000
    O12     O    0.43415   0.50005   0.87734   1.000
    N13     N    0.99997   0.50781   0.50002   1.000
    O14     O    0.86878   0.30051   0.60070   1.000
    O15     O    0.08272   0.40826   0.60956   1.000
    O16     O    0.06514   0.50031   0.62245   1.000
    O17     O    0.93482   0.51531   0.37758   1.000
    O18     O    0.13116   0.71511   0.39933   1.000
    O19     O    0.08550   0.30348   0.39545   1.000
    O20     O    0.91724   0.60736   0.39048   1.000
    O21     O    0.91445   0.71214   0.60458   1.000
loop_
    _geom_bond_atom_site_label_1
    _geom_bond_atom_site_label_2
    _geom_bond_distance
    _geom_bond_site_symmetry_2
    _ccdc_geom_bond_type
    N4     O5        2.26484      .   S
    Zr1    O5        3.22940      .   S
    N4     O6        1.97726      .   S
    Zr3    O6        2.45321      .   S
    N4     O7        2.30510      .   S
    Zr1    O7        3.27706  1_545   S
    N4     O8        1.95477      .   S
    Zr3    O8        2.46809      .   S
    N4     O9        1.95478  1_554   S
    Zr2    O9        2.46807      .   S
    N4     O10       2.26485  1_554   S
    Zr0    O10       3.22942  1_545   S
    N4     O11       2.30509  1_554   S
    Zr0    O11       3.27706      .   S
    N4     O12       1.97727  1_554   S
    Zr2    O12       2.45319      .   S
    N13    O14       2.30540      .   S
    Zr0    O14       3.27851      .   S
    N13    O15       1.95016  1_655   S
    Zr2    O15       2.46116      .   S
    N13    O16       1.97190  1_655   S
    Zr2    O16       2.44684      .   S
    N13    O17       1.97190      .   S
    Zr3    O17       2.44681      .   S
    N13    O18       2.30541  1_655   S
    Zr1    O18       3.27852  1_545   S
    N13    O19       2.26868  1_655   S
    Zr1    O19       3.23530      .   S
    N13    O20       1.95015      .   S
    Zr3    O20       2.46114      .   S
    N13    O21       2.26869      .   S
    Zr0    O21       3.23531  1_545   S
