# CIF file generated by openbabel 2.4.90, see http://openbabel.sf.net
data_I
_chemical_name_common ''
_cell_length_a 18.3
_cell_length_b 17.826
_cell_length_c 15.734
_cell_angle_alpha 90
_cell_angle_beta 90
_cell_angle_gamma 90
_space_group_name_H-M_alt 'P 1'
_space_group_name_Hall 'P 1'
loop_
    _symmetry_equiv_pos_as_xyz
    x,y,z
loop_
    _atom_site_label
    _atom_site_type_symbol
    _atom_site_fract_x
    _atom_site_fract_y
    _atom_site_fract_z
    _atom_site_occupancy
    H0      H    0.48732   0.42125   0.97794   1.000
    H1      H    0.98732   0.42125   0.97794   1.000
    H2      H    0.42144   0.50472   0.87628   1.000
    H3      H    0.92144   0.50472   0.87628   1.000
    H4      H    0.32852   0.30404   0.76462   1.000
    H5      H    0.82852   0.30404   0.76462   1.000
    H6      H    0.39369   0.23034   0.87639   1.000
    H7      H    0.89369   0.23034   0.87639   1.000
    H8      H    0.26175   0.36260   0.62725   1.000
    H9      H    0.76175   0.36259   0.62725   1.000
    H10     H    0.16602   0.28464   0.55910   1.000
    H11     H    0.66602   0.28464   0.55910   1.000
    H12     H    0.00717   0.35659   0.72750   1.000
    H13     H    0.50717   0.35659   0.72750   1.000
    H14     H    0.09771   0.43200   0.81001   1.000
    H15     H    0.59771   0.43200   0.81001   1.000
    H16     H    0.01268   0.07876   0.97794   1.000
    H17     H    0.51268   0.07876   0.97794   1.000
    H18     H    0.07856   0.99529   0.87628   1.000
    H19     H    0.57857   0.99529   0.87628   1.000
    H20     H    0.17148   0.19597   0.76462   1.000
    H21     H    0.67148   0.19597   0.76462   1.000
    H22     H    0.10631   0.26967   0.87639   1.000
    H23     H    0.60631   0.26967   0.87639   1.000
    H24     H    0.23825   0.13742   0.62725   1.000
    H25     H    0.73825   0.13742   0.62725   1.000
    H26     H    0.33398   0.21538   0.55910   1.000
    H27     H    0.83398   0.21538   0.55910   1.000
    H28     H    0.49283   0.14343   0.72750   1.000
    H29     H    0.99283   0.14343   0.72750   1.000
    H30     H    0.40229   0.06802   0.81001   1.000
    H31     H    0.90230   0.06802   0.81001   1.000
    H32     H    0.48732   0.57877   0.52203   1.000
    H33     H    0.98732   0.57877   0.52203   1.000
    H34     H    0.42144   0.49530   0.62300   1.000
    H35     H    0.92144   0.49530   0.62369   1.000
    H36     H    0.32852   0.69599   0.73535   1.000
    H37     H    0.82852   0.69599   0.73535   1.000
    H38     H    0.39369   0.76969   0.62350   1.000
    H39     H    0.89369   0.76969   0.62359   1.000
    H40     H    0.26175   0.63743   0.87272   1.000
    H41     H    0.76175   0.63743   0.87272   1.000
    H42     H    0.16602   0.71539   0.94087   1.000
    H43     H    0.66602   0.71539   0.94087   1.000
    H44     H    0.00717   0.64344   0.77247   1.000
    H45     H    0.50717   0.64344   0.77247   1.000
    H46     H    0.09771   0.56803   0.68996   1.000
    H47     H    0.59771   0.56803   0.68996   1.000
    H48     H    0.01268   0.92126   0.52203   1.000
    H49     H    0.51268   0.92126   0.52203   1.000
    H50     H    0.07856   0.00000   0.62300   1.000
    H51     H    0.57857   0.00000   0.62300   1.000
    H52     H    0.17148   0.80405   0.73535   1.000
    H53     H    0.67148   0.80405   0.73535   1.000
    H54     H    0.10631   0.73035   0.62350   1.000
    H55     H    0.60632   0.73035   0.62350   1.000
    H56     H    0.23825   0.86261   0.87272   1.000
    H57     H    0.73825   0.86261   0.87272   1.000
    H58     H    0.33398   0.78465   0.94087   1.000
    H59     H    0.83398   0.78465   0.94087   1.000
    H60     H    0.49283   0.85660   0.77247   1.000
    H61     H    0.99283   0.85660   0.77247   1.000
    H62     H    0.40229   0.93201   0.68996   1.000
    H63     H    0.90230   0.93201   0.68996   1.000
    H64     H    0.01268   0.57877   0.02204   1.000
    H65     H    0.51268   0.57878   0.02204   1.000
    H66     H    0.07857   0.49530   0.12370   1.000
    H67     H    0.57857   0.49531   0.12370   1.000
    H68     H    0.17148   0.69599   0.23536   1.000
    H69     H    0.67148   0.69599   0.23536   1.000
    H70     H    0.10631   0.76969   0.12359   1.000
    H71     H    0.60632   0.76969   0.12359   1.000
    C72     C    0.63773   0.16723   0.81150   1.000
    C73     C    0.10096   0.20879   0.87282   1.000
    C74     C    0.60096   0.20879   0.87282   1.000
    H75     H    0.23825   0.63743   0.37273   1.000
    H76     H    0.73825   0.63743   0.37270   1.000
    H77     H    0.33398   0.71539   0.44088   1.000
    H78     H    0.83398   0.71539   0.44088   1.000
    H79     H    0.49283   0.64344   0.27248   1.000
    H80     H    0.99283   0.64344   0.27248   1.000
    H81     H    0.40230   0.56803   0.18997   1.000
    H82     H    0.90230   0.56803   0.18997   1.000
    H83     H    0.48732   0.92126   0.02204   1.000
    H84     H    0.98733   0.92127   0.02204   1.000
    H85     H    0.42144   0.00000   0.12370   1.000
    H86     H    0.92144   0.00000   0.12370   1.000
    H87     H    0.32852   0.80405   0.23536   1.000
    H88     H    0.82852   0.80405   0.23536   1.000
    H89     H    0.39369   0.73035   0.12359   1.000
    H90     H    0.89369   0.73035   0.12359   1.000
    H91     H    0.26175   0.86261   0.37270   1.000
    H92     H    0.76175   0.86261   0.37273   1.000
    H93     H    0.16602   0.78465   0.44088   1.000
    H94     H    0.66602   0.78465   0.44088   1.000
    H95     H    0.00717   0.85660   0.27248   1.000
    H96     H    0.50717   0.85660   0.27248   1.000
    H97     H    0.09771   0.93201   0.18997   1.000
    H98     H    0.59771   0.93201   0.18997   1.000
    C99     C    0.29361   0.86301   0.84677   1.000
    C100    C    0.79362   0.86301   0.84677   1.000
    C101    C    0.34703   0.81994   0.88636   1.000
    C102    C    0.84703   0.81994   0.88636   1.000
    C103    C    0.43554   0.85880   0.79151   1.000
    H104    H    0.01268   0.42125   0.47795   1.000
    H105    H    0.51268   0.42125   0.47790   1.000
    H106    H    0.07856   0.50472   0.37628   1.000
    H107    H    0.57857   0.50472   0.37628   1.000
    H108    H    0.17148   0.30404   0.26460   1.000
    H109    H    0.67148   0.30404   0.26463   1.000
    H110    H    0.10631   0.23034   0.37639   1.000
    H111    H    0.60631   0.23034   0.37639   1.000
    H112    H    0.23825   0.36259   0.12726   1.000
    H113    H    0.73825   0.36260   0.12726   1.000
    H114    H    0.33398   0.28464   0.05910   1.000
    H115    H    0.83398   0.28463   0.05911   1.000
    H116    H    0.49283   0.35659   0.22751   1.000
    H117    H    0.99283   0.35658   0.22751   1.000
    H118    H    0.40229   0.43200   0.31002   1.000
    H119    H    0.90230   0.43200   0.31002   1.000
    H120    H    0.48732   0.07876   0.47795   1.000
    H121    H    0.98732   0.07876   0.47795   1.000
    H122    H    0.42144   0.99529   0.37628   1.000
    H123    H    0.92144   0.99529   0.37628   1.000
    H124    H    0.32852   0.19597   0.26460   1.000
    H125    H    0.82852   0.19597   0.26460   1.000
    H126    H    0.39369   0.26967   0.37639   1.000
    H127    H    0.89369   0.26968   0.37639   1.000
    H128    H    0.26175   0.13742   0.12726   1.000
    H129    H    0.76175   0.13742   0.12726   1.000
    H130    H    0.16602   0.21538   0.05911   1.000
    H131    H    0.66602   0.21538   0.05910   1.000
    H132    H    0.00717   0.14343   0.22751   1.000
    H133    H    0.50717   0.14343   0.22751   1.000
    H134    H    0.09771   0.06802   0.31002   1.000
    H135    H    0.59771   0.06802   0.31002   1.000
    C136    C    0.45033   0.39820   0.93018   1.000
    C137    C    0.95034   0.39820   0.93018   1.000
    C138    C    0.41433   0.44403   0.87191   1.000
    C139    C    0.91433   0.44403   0.87191   1.000
    C140    C    0.36849   0.41142   0.81098   1.000
    C141    C    0.86850   0.41142   0.81090   1.000
    C142    C    0.36227   0.33278   0.81151   1.000
    C143    C    0.86227   0.33278   0.81151   1.000
    C144    C    0.39905   0.29123   0.87282   1.000
    C145    C    0.89905   0.29123   0.87282   1.000
    C146    C    0.18769   0.40566   0.72481   1.000
    C147    C    0.68770   0.40566   0.72481   1.000
    C148    C    0.20639   0.36300   0.65320   1.000
    C149    C    0.70639   0.36300   0.65320   1.000
    C150    C    0.15298   0.31993   0.61361   1.000
    C151    C    0.65298   0.31992   0.61361   1.000
    C152    C    0.06446   0.35878   0.70846   1.000
    C153    C    0.56446   0.35878   0.70846   1.000
    C154    C    0.11506   0.40148   0.75340   1.000
    C155    C    0.61506   0.40148   0.75343   1.000
    C156    C    0.04967   0.10181   0.93018   1.000
    C157    C    0.54967   0.10181   0.93018   1.000
    C158    C    0.08566   0.05598   0.87191   1.000
    C159    C    0.58566   0.05598   0.87191   1.000
    C160    C    0.13151   0.08859   0.81098   1.000
    C161    C    0.63151   0.08859   0.81098   1.000
    C162    C    0.13773   0.16723   0.81150   1.000
    C163    C    0.31231   0.09435   0.72480   1.000
    C164    C    0.81231   0.09435   0.72480   1.000
    C165    C    0.29361   0.13702   0.65320   1.000
    C166    C    0.79361   0.13702   0.65320   1.000
    C167    C    0.34703   0.18009   0.61361   1.000
    C168    C    0.84703   0.18009   0.61361   1.000
    C169    C    0.43554   0.14123   0.70846   1.000
    C170    C    0.93554   0.14123   0.70846   1.000
    C171    C    0.38494   0.09854   0.75344   1.000
    C172    C    0.88494   0.09854   0.75344   1.000
    C173    C    0.45033   0.60182   0.56979   1.000
    C174    C    0.95033   0.60182   0.56979   1.000
    C175    C    0.41434   0.55600   0.62806   1.000
    C176    C    0.91435   0.55600   0.62806   1.000
    C177    C    0.36849   0.58860   0.68899   1.000
    C178    C    0.86849   0.58860   0.68890   1.000
    C179    C    0.36227   0.66724   0.68847   1.000
    C180    C    0.86227   0.66724   0.68847   1.000
    C181    C    0.39904   0.70880   0.62715   1.000
    C182    C    0.89904   0.70880   0.62715   1.000
    C183    C    0.18769   0.59436   0.77510   1.000
    C184    C    0.68770   0.59436   0.77518   1.000
    C185    C    0.20639   0.63704   0.84677   1.000
    C186    C    0.70639   0.63704   0.84677   1.000
    C187    C    0.15297   0.68010   0.88637   1.000
    C188    C    0.65297   0.68010   0.88637   1.000
    C189    C    0.06446   0.64124   0.79151   1.000
    C190    C    0.56446   0.64124   0.79151   1.000
    C191    C    0.11506   0.59856   0.74653   1.000
    C192    C    0.61506   0.59856   0.74653   1.000
    C193    C    0.04967   0.89822   0.56979   1.000
    C194    C    0.54967   0.89822   0.56979   1.000
    C195    C    0.08566   0.94404   0.62806   1.000
    C196    C    0.58566   0.94404   0.62806   1.000
    C197    C    0.13151   0.91143   0.68899   1.000
    C198    C    0.63151   0.91143   0.68899   1.000
    C199    C    0.13773   0.83279   0.68847   1.000
    C200    C    0.63773   0.83279   0.68847   1.000
    C201    C    0.10096   0.79124   0.62715   1.000
    C202    C    0.60096   0.79124   0.62715   1.000
    C203    C    0.31230   0.90567   0.77517   1.000
    C204    C    0.81231   0.90567   0.77517   1.000
    C205    C    0.93554   0.85880   0.79151   1.000
    C206    C    0.38494   0.90149   0.74654   1.000
    C207    C    0.88494   0.90149   0.74654   1.000
    C208    C    0.04967   0.60182   0.06979   1.000
    C209    C    0.54967   0.60182   0.06980   1.000
    C210    C    0.08565   0.55600   0.12807   1.000
    C211    C    0.58567   0.55600   0.12800   1.000
    C212    C    0.13151   0.58860   0.18899   1.000
    C213    C    0.63151   0.58861   0.18900   1.000
    C214    C    0.13773   0.66724   0.18848   1.000
    C215    C    0.63774   0.66725   0.18847   1.000
    C216    C    0.10096   0.70880   0.12716   1.000
    C217    C    0.60096   0.70880   0.12716   1.000
    C218    C    0.31231   0.59436   0.27518   1.000
    C219    C    0.81231   0.59437   0.27517   1.000
    C220    C    0.29361   0.63704   0.34678   1.000
    C221    C    0.79362   0.63702   0.34678   1.000
    C222    C    0.34703   0.68010   0.38637   1.000
    C223    C    0.84703   0.68010   0.38637   1.000
    C224    C    0.43554   0.64123   0.29152   1.000
    C225    C    0.93554   0.64125   0.29151   1.000
    C226    C    0.38494   0.59856   0.24654   1.000
    C227    C    0.88495   0.59855   0.24650   1.000
    C228    C    0.45033   0.89822   0.06980   1.000
    C229    C    0.95033   0.89822   0.06979   1.000
    C230    C    0.41434   0.94404   0.12807   1.000
    C231    C    0.91435   0.94404   0.12807   1.000
    C232    C    0.36849   0.91143   0.18900   1.000
    C233    C    0.86849   0.91144   0.18899   1.000
    C234    C    0.36227   0.83279   0.18840   1.000
    C235    C    0.86228   0.83279   0.18848   1.000
    C236    C    0.39904   0.79124   0.12716   1.000
    C237    C    0.89904   0.79124   0.12716   1.000
    C238    C    0.18769   0.90568   0.27518   1.000
    C239    C    0.68770   0.90568   0.27518   1.000
    C240    C    0.20639   0.86301   0.34678   1.000
    C241    C    0.70639   0.86300   0.34678   1.000
    C242    C    0.15297   0.81994   0.38637   1.000
    C243    C    0.65297   0.81994   0.38637   1.000
    C244    C    0.06446   0.85880   0.29152   1.000
    C245    C    0.56446   0.85880   0.29152   1.000
    C246    C    0.11506   0.90148   0.24654   1.000
    C247    C    0.61506   0.90148   0.24654   1.000
    C248    C    0.04966   0.39821   0.43018   1.000
    C249    C    0.54967   0.39820   0.43019   1.000
    C250    C    0.08567   0.44403   0.37192   1.000
    C251    C    0.58566   0.44403   0.37190   1.000
    C252    C    0.13151   0.41142   0.31098   1.000
    C253    C    0.63151   0.41142   0.31099   1.000
    C254    C    0.13774   0.33278   0.31152   1.000
    C255    C    0.63773   0.33278   0.31150   1.000
    C256    C    0.10095   0.29123   0.37283   1.000
    C257    C    0.60096   0.29123   0.37283   1.000
    C258    C    0.31231   0.40566   0.22481   1.000
    C259    C    0.81231   0.40567   0.22480   1.000
    C260    C    0.29361   0.36300   0.15320   1.000
    C261    C    0.79361   0.36299   0.15321   1.000
    C262    C    0.34702   0.31992   0.11362   1.000
    C263    C    0.84703   0.31993   0.11361   1.000
    C264    C    0.43554   0.35878   0.20847   1.000
    C265    C    0.93554   0.35879   0.20847   1.000
    C266    C    0.38495   0.40148   0.25344   1.000
    C267    C    0.88494   0.40147   0.25345   1.000
    C268    C    0.45033   0.10181   0.43019   1.000
    C269    C    0.95034   0.10181   0.43018   1.000
    C270    C    0.41434   0.05598   0.37192   1.000
    C271    C    0.91434   0.05598   0.37192   1.000
    C272    C    0.36849   0.08859   0.31099   1.000
    C273    C    0.86850   0.08860   0.31098   1.000
    C274    C    0.36227   0.16723   0.31151   1.000
    C275    C    0.86227   0.16724   0.31150   1.000
    C276    C    0.39904   0.20879   0.37283   1.000
    C277    C    0.89905   0.20879   0.37283   1.000
    C278    C    0.18770   0.09435   0.22481   1.000
    C279    C    0.68770   0.09435   0.22481   1.000
    C280    C    0.20639   0.13701   0.15320   1.000
    C281    C    0.70639   0.13701   0.15320   1.000
    C282    C    0.15297   0.18009   0.11360   1.000
    C283    C    0.65298   0.18009   0.11362   1.000
    C284    C    0.06446   0.14123   0.20847   1.000
    C285    C    0.56446   0.14123   0.20847   1.000
    C286    C    0.11506   0.09854   0.25344   1.000
    C287    C    0.61506   0.09854   0.25344   1.000
    N288    N    0.44261   0.32307   0.93181   1.000
    N289    N    0.94261   0.32307   0.93181   1.000
    N290    N    0.08274   0.31843   0.63928   1.000
    N291    N    0.58274   0.31843   0.63920   1.000
    N292    N    0.05739   0.17694   0.93181   1.000
    N293    N    0.55739   0.17694   0.93181   1.000
    N294    N    0.41726   0.18159   0.63928   1.000
    N295    N    0.91726   0.18159   0.63928   1.000
    N296    N    0.44261   0.67696   0.56810   1.000
    N297    N    0.94261   0.67696   0.56817   1.000
    N298    N    0.08274   0.68160   0.86069   1.000
    N299    N    0.58274   0.68160   0.86069   1.000
    N300    N    0.05739   0.82308   0.56816   1.000
    N301    N    0.55739   0.82308   0.56816   1.000
    N302    N    0.41726   0.81844   0.86069   1.000
    N303    N    0.91726   0.81844   0.86069   1.000
    N304    N    0.05739   0.67696   0.06817   1.000
    N305    N    0.55739   0.67696   0.06817   1.000
    N306    N    0.41726   0.68160   0.36000   1.000
    N307    N    0.91726   0.68160   0.36070   1.000
    N308    N    0.44261   0.82308   0.06817   1.000
    N309    N    0.94261   0.82308   0.06817   1.000
    N310    N    0.08274   0.81844   0.36070   1.000
    N311    N    0.58274   0.81844   0.36070   1.000
    N312    N    0.05739   0.32307   0.43182   1.000
    N313    N    0.55739   0.32307   0.43181   1.000
    N314    N    0.41726   0.31843   0.13928   1.000
    N315    N    0.91726   0.31842   0.13929   1.000
    N316    N    0.44261   0.17694   0.43182   1.000
    N317    N    0.94261   0.17694   0.43182   1.000
    N318    N    0.08274   0.18159   0.13928   1.000
    N319    N    0.58274   0.18159   0.13928   1.000
loop_
    _geom_bond_atom_site_label_1
    _geom_bond_atom_site_label_2
    _geom_bond_distance
    _geom_bond_site_symmetry_2
    _ccdc_geom_bond_type
    H64    C208      1.09160      .   S
    H65    C209      1.09157      .   S
    H83    C228      1.09164      .   S
    H84    C229      1.09158      .   S
    H114   C262      1.09020      .   S
    H131   C283      1.09020      .   S
    H130   C282      1.08988      .   S
    H115   C263      1.09006      .   S
    N304   C208      1.34705      .   S
    N304   C216      1.34884      .   S
    N305   C209      1.34705      .   S
    N305   C217      1.34875      .   S
    N308   C228      1.34706      .   S
    N308   C236      1.34879      .   S
    N309   C229      1.34705      .   S
    N309   C237      1.34885      .   S
    C229   C231      1.39351      .   S
    C208   C210      1.39350      .   S
    C209   C211      1.39282      .   S
    C228   C230      1.39346      .   S
    C282   N318      1.34760      .   S
    C282   C280      1.39037      .   S
    C263   N315      1.34756      .   S
    C263   C261      1.39032      .   S
    C262   N314      1.34754      .   S
    C262   C260      1.39027      .   S
    C283   N319      1.34754      .   S
    C283   C281      1.39026      .   S
    H90    C237      1.09126      .   S
    H89    C236      1.09125      .   S
    H71    C217      1.09126      .   S
    H70    C216      1.09126      .   S
    H66    C210      1.09181      .   S
    H67    C211      1.09174      .   S
    H86    C231      1.00825  1_545   S
    H85    C230      1.00829  1_545   S
    C236   C234      1.38926      .   S
    C216   C214      1.39003      .   S
    C217   C215      1.39008      .   S
    C237   C235      1.39005      .   S
    H112   C260      1.09225      .   S
    H113   C261      1.09228      .   S
    H128   C280      1.09225      .   S
    H129   C281      1.09225      .   S
    C211   C213      1.40097      .   S
    C231   C233      1.40027      .   S
    C230   C232      1.40030      .   S
    C210   C212      1.40028      .   S
    N318   C284      1.34708      .   S
    N319   C285      1.34702      .   S
    N314   C264      1.34703      .   S
    N315   C265      1.34702      .   S
    C260   C258      1.40167      .   S
    C280   C278      1.40175      .   S
    C281   C279      1.40168      .   S
    C261   C259      1.40160      .   S
    C234   C232      1.40651      .   S
    C234   H87       1.09079      .   S
    C215   C213      1.40651      .   S
    C215   H69       1.08997      .   S
    C235   C233      1.40649      .   S
    C235   H88       1.09000      .   S
    C214   C212      1.40650      .   S
    C214   H68       1.09001      .   S
    H81    C226      1.09054      .   S
    H82    C227      1.08991      .   S
    H97    C246      1.09049      .   S
    H98    C247      1.09054      .   S
    C285   H133      1.09103      .   S
    C285   C287      1.39185      .   S
    C284   H132      1.09102      .   S
    C284   C286      1.39183      .   S
    C265   H117      1.09102      .   S
    C265   C267      1.39186      .   S
    C264   H116      1.09103      .   S
    C264   C266      1.39185      .   S
    C259   C267      1.40553      .   S
    C278   C286      1.40550      .   S
    C279   C287      1.40554      .   S
    C258   C266      1.40553      .   S
    C227   C219      1.40573      .   S
    C227   C225      1.39218      .   S
    C226   C218      1.40548      .   S
    C226   C224      1.39185      .   S
    C246   C238      1.40553      .   S
    C246   C244      1.39188      .   S
    C247   C239      1.40548      .   S
    C247   C245      1.39186      .   S
    C266   H118      1.09054      .   S
    C286   H134      1.09059      .   S
    C287   H135      1.09053      .   S
    C267   H119      1.09052      .   S
    H108   C254      1.09028      .   S
    H124   C274      1.09022      .   S
    H125   C275      1.09008      .   S
    H109   C255      1.08989      .   S
    H96    C245      1.09101      .   S
    H80    C225      1.09099      .   S
    H79    C224      1.09102      .   S
    H95    C244      1.09102      .   S
    C219   C221      1.40169      .   S
    C238   C240      1.40168      .   S
    C239   C241      1.40173      .   S
    C218   C220      1.40174      .   S
    C225   N307      1.34704      .   S
    C224   N306      1.33816      .   S
    C245   N311      1.34703      .   S
    C244   N310      1.34698      .   S
    C252   C254      1.40649      .   S
    C252   C250      1.40033      .   S
    C273   C275      1.40649      .   S
    C273   C271      1.40033      .   S
    C253   C255      1.40650      .   S
    C253   C251      1.40016      .   S
    C272   C274      1.40650      .   S
    C272   C270      1.40030      .   S
    C255   C257      1.39015      .   S
    C275   C277      1.39030      .   S
    C274   C276      1.39011      .   S
    C254   C256      1.39009      .   S
    C240   H91       1.09212      .   S
    C240   C242      1.39028      .   S
    C241   H92       1.09229      .   S
    C241   C243      1.39024      .   S
    C221   H76       1.09213      .   S
    C221   C223      1.39033      .   S
    C220   H75       1.09229      .   S
    C220   C222      1.39023      .   S
    N306   C222      1.35086      .   S
    N310   C242      1.34753      .   S
    N311   C243      1.34752      .   S
    N307   C223      1.34757      .   S
    C251   H107      1.09182      .   S
    C251   C249      1.39360      .   S
    C250   H106      1.09180      .   S
    C250   C248      1.39344      .   S
    C270   H122      1.09182  1_545   S
    C270   C268      1.39346      .   S
    C271   H123      1.09182  1_545   S
    C271   C269      1.39343      .   S
    C276   H126      1.09126      .   S
    C276   N316      1.34880      .   S
    C277   H127      1.09126      .   S
    C277   N317      1.34876      .   S
    C257   H111      1.09127      .   S
    C257   N313      1.34874      .   S
    C256   H110      1.09126      .   S
    C256   N312      1.34876      .   S
    C242   H93       1.09016      .   S
    C243   H94       1.09020      .   S
    C222   H77       1.09020      .   S
    C223   H78       1.09009      .   S
    C248   N312      1.34703      .   S
    C248   H104      1.09167      .   S
    C269   N317      1.34705      .   S
    C269   H121      1.09167      .   S
    C249   N313      1.34706      .   S
    C249   H105      1.09114      .   S
    C268   N316      1.34704      .   S
    C268   H120      1.09162      .   S
    H49    C194      1.09162      .   S
    H48    C193      1.09162      .   S
    H33    C174      1.09168      .   S
    H32    C173      1.09167      .   S
    H27    C168      1.09014      .   S
    H10    C150      1.09010      .   S
    H11    C151      1.09008      .   S
    H26    C167      1.09014      .   S
    N296   C173      1.34707      .   S
    N296   C181      1.34947      .   S
    N300   C193      1.34704      .   S
    N300   C201      1.34879      .   S
    N301   C194      1.34704      .   S
    N301   C202      1.34880      .   S
    N297   C174      1.34705      .   S
    N297   C182      1.34873      .   S
    C174   C176      1.39341      .   S
    C194   C196      1.39347      .   S
    C193   C195      1.39347      .   S
    C173   C175      1.39342      .   S
    C167   N294      1.34755      .   S
    C167   C165      1.39028      .   S
    C151   N291      1.34721      .   S
    C151   C149      1.39034      .   S
    C150   N290      1.34758      .   S
    C150   C148      1.39030      .   S
    C168   N295      1.34755      .   S
    C168   C166      1.39028      .   S
    H51    C196      1.00909  1_545   S
    H34    C175      1.09256      .   S
    H50    C195      1.00907  1_545   S
    H38    C181      1.09133      .   S
    H55    C202      1.09132      .   S
    H54    C201      1.09134      .   S
    H39    C182      1.09125      .   S
    H35    C176      1.09183      .   S
    C202   C200      1.39012      .   S
    C201   C199      1.39012      .   S
    C181   C179      1.39009      .   S
    C182   C180      1.39007      .   S
    H9     C149      1.09233      .   S
    H24    C165      1.09229      .   S
    H25    C166      1.09229      .   S
    H8     C148      1.09231      .   S
    C196   C198      1.40028      .   S
    C195   C197      1.40029      .   S
    C175   C177      1.40033      .   S
    C176   C178      1.39940      .   S
    N291   C153      1.34791      .   S
    N290   C152      1.34692      .   S
    N294   C169      1.34697      .   S
    N295   C170      1.34697      .   S
    C166   C164      1.40166      .   S
    C149   C147      1.40167      .   S
    C165   C163      1.40166      .   S
    C148   C146      1.40171      .   S
    C179   C177      1.40649      .   S
    C179   H36       1.08997      .   S
    C180   C178      1.40648      .   S
    C180   H37       1.09000      .   S
    C199   C197      1.40650      .   S
    C199   H52       1.08992      .   S
    C200   C198      1.40650      .   S
    C200   H53       1.08991      .   S
    H47    C192      1.09054      .   S
    H46    C191      1.09052      .   S
    H63    C207      1.09059      .   S
    H62    C206      1.09059      .   S
    C152   H12       1.09103      .   S
    C152   C154      1.39159      .   S
    C153   H13       1.09103      .   S
    C153   C155      1.39185      .   S
    C169   H28       1.09102      .   S
    C169   C171      1.39188      .   S
    C170   H29       1.09102      .   S
    C170   C172      1.39188      .   S
    C164   C172      1.40553      .   S
    C163   C171      1.40553      .   S
    C146   C154      1.40533      .   S
    C147   C155      1.40549      .   S
    C191   C183      1.40515      .   S
    C191   C189      1.39185      .   S
    C192   C184      1.40553      .   S
    C192   C190      1.39185      .   S
    C207   C204      1.40548      .   S
    C207   C205      1.39182      .   S
    C206   C203      1.40549      .   S
    C206   C103      1.39182      .   S
    C154   H14       1.09094      .   S
    C155   H15       1.09053      .   S
    C172   H31       1.09048      .   S
    C171   H30       1.09048      .   S
    H4     C142      1.08998      .   S
    H21    C72       1.08993      .   S
    H20    C162      1.08993      .   S
    H5     C143      1.08996      .   S
    H60    C103      1.09102      .   S
    H45    C190      1.09101      .   S
    H44    C189      1.09102      .   S
    H61    C205      1.09104      .   S
    C183   C185      1.40260      .   S
    C203   C99       1.40163      .   S
    C204   C100      1.40163      .   S
    C184   C186      1.40161      .   S
    C205   N303      1.34696      .   S
    C103   N302      1.34696      .   S
    C189   N298      1.34701      .   S
    C190   N299      1.34703      .   S
    C141   C143      1.40651      .   S
    C141   C139      1.40109      .   S
    C140   C142      1.40650      .   S
    C140   C138      1.40025      .   S
    C160   C162      1.40650      .   S
    C160   C158      1.40030      .   S
    C161   C72       1.40650      .   S
    C161   C159      1.40031      .   S
    C162   C73       1.39012      .   S
    C72    C74       1.39011      .   S
    C143   C145      1.39007      .   S
    C142   C144      1.39004      .   S
    C99    H56       1.09229      .   S
    C99    C101      1.39030      .   S
    C100   H57       1.09231      .   S
    C100   C102      1.39029      .   S
    C185   H40       1.09228      .   S
    C185   C187      1.39033      .   S
    C186   H41       1.09228      .   S
    C186   C188      1.39032      .   S
    N299   C188      1.34756      .   S
    N298   C187      1.34756      .   S
    N302   C101      1.34755      .   S
    N303   C102      1.34755      .   S
    C139   H3        1.09183      .   S
    C139   C137      1.39353      .   S
    C138   H2        1.09182      .   S
    C138   C136      1.39350      .   S
    C158   H18       1.09181  1_545   S
    C158   C156      1.39346      .   S
    C159   H19       1.09183  1_545   S
    C159   C157      1.39345      .   S
    C144   H6        1.09126      .   S
    C144   N288      1.34878      .   S
    C73    H22       1.09127      .   S
    C73    N292      1.34879      .   S
    C145   H7        1.09126      .   S
    C145   N289      1.34876      .   S
    C74    H23       1.09127      .   S
    C74    N293      1.34881      .   S
    C101   H58       1.09014      .   S
    C102   H59       1.09013      .   S
    C188   H43       1.09008      .   S
    C187   H42       1.09005      .   S
    C137   N289      1.34705      .   S
    C137   H1        1.09157      .   S
    C136   N288      1.34704      .   S
    C136   H0        1.09159      .   S
    C156   N292      1.34705      .   S
    C156   H16       1.09163      .   S
    C157   N293      1.34705      .   S
    C157   H17       1.09163      .   S
