# CIF file generated by openbabel 2.4.90, see http://openbabel.sf.net
data_I
_chemical_name_common ''
_cell_length_a 18.3
_cell_length_b 17.826
_cell_length_c 15.734
_cell_angle_alpha 90
_cell_angle_beta 90
_cell_angle_gamma 90
_space_group_name_H-M_alt 'P 1'
_space_group_name_Hall 'P 1'
loop_
    _symmetry_equiv_pos_as_xyz
    x,y,z
loop_
    _atom_site_label
    _atom_site_type_symbol
    _atom_site_fract_x
    _atom_site_fract_y
    _atom_site_fract_z
    _atom_site_occupancy
    H0      H    0.33417   0.43566   0.68441   1.000
    H1      H    0.83417   0.43566   0.68441   1.000
    H2      H    0.23037   0.45966   0.83585   1.000
    H3      H    0.73037   0.45966   0.83585   1.000
    H4      H    0.16583   0.06436   0.68441   1.000
    H5      H    0.66583   0.06435   0.68441   1.000
    H6      H    0.26964   0.04035   0.83580   1.000
    H7      H    0.76964   0.04035   0.83580   1.000
    H8      H    0.33417   0.56437   0.81557   1.000
    H9      H    0.83417   0.56437   0.81557   1.000
    H10     H    0.23037   0.54036   0.66412   1.000
    H11     H    0.73037   0.54036   0.66410   1.000
    H12     H    0.16583   0.93567   0.81557   1.000
    H13     H    0.66583   0.93567   0.81557   1.000
    H14     H    0.26963   0.95967   0.66412   1.000
    H15     H    0.76964   0.95967   0.66412   1.000
    H16     H    0.16583   0.56436   0.31558   1.000
    H17     H    0.66583   0.56437   0.31557   1.000
    H18     H    0.26964   0.54036   0.16412   1.000
    H19     H    0.76964   0.54037   0.16413   1.000
    C20     C    0.17605   0.04358   0.74927   1.000
    H21     H    0.33417   0.93567   0.31557   1.000
    H22     H    0.83417   0.93567   0.31550   1.000
    H23     H    0.23037   0.95967   0.16412   1.000
    H24     H    0.73037   0.95967   0.16412   1.000
    H25     H    0.16583   0.43565   0.18442   1.000
    H26     H    0.66583   0.43566   0.18441   1.000
    H27     H    0.26964   0.45966   0.33586   1.000
    H28     H    0.76964   0.45966   0.33586   1.000
    H29     H    0.33417   0.06436   0.18441   1.000
    H30     H    0.83417   0.06436   0.18442   1.000
    H31     H    0.23037   0.04035   0.33586   1.000
    H32     H    0.73037   0.04035   0.33586   1.000
    C33     C    0.32395   0.45644   0.74927   1.000
    C34     C    0.82396   0.45644   0.74927   1.000
    C35     C    0.24001   0.45836   0.76680   1.000
    C36     C    0.74001   0.45836   0.76680   1.000
    C37     C    0.67605   0.04358   0.74927   1.000
    C38     C    0.25999   0.04165   0.76680   1.000
    C39     C    0.75999   0.04165   0.76680   1.000
    C40     C    0.32394   0.54360   0.75070   1.000
    C41     C    0.82394   0.54360   0.75070   1.000
    C42     C    0.24000   0.54166   0.73317   1.000
    C43     C    0.74000   0.54166   0.73317   1.000
    C44     C    0.17605   0.95645   0.75070   1.000
    C45     C    0.67605   0.95645   0.75070   1.000
    C46     C    0.25999   0.95838   0.73317   1.000
    C47     C    0.75999   0.95838   0.73317   1.000
    C48     C    0.17606   0.54360   0.25071   1.000
    C49     C    0.67605   0.54358   0.25070   1.000
    C50     C    0.26000   0.54166   0.23317   1.000
    C51     C    0.75999   0.54166   0.23318   1.000
    C52     C    0.32395   0.95644   0.25070   1.000
    C53     C    0.82394   0.95644   0.25071   1.000
    C54     C    0.24001   0.95838   0.23317   1.000
    C55     C    0.74001   0.95838   0.23317   1.000
    C56     C    0.17605   0.45645   0.24928   1.000
    C57     C    0.67606   0.45643   0.24928   1.000
    C58     C    0.25999   0.45836   0.26681   1.000
    C59     C    0.76000   0.45836   0.26681   1.000
    C60     C    0.32395   0.04358   0.24928   1.000
    C61     C    0.82396   0.04357   0.24928   1.000
    C62     C    0.24001   0.04165   0.26681   1.000
    C63     C    0.74001   0.04165   0.26681   1.000
loop_
    _geom_bond_atom_site_label_1
    _geom_bond_atom_site_label_2
    _geom_bond_distance
    _geom_bond_site_symmetry_2
    _ccdc_geom_bond_type
    H18    C50       1.10089      .   S
    H24    C55       1.10090      .   S
    H23    C54       1.10091      .   S
    H19    C51       1.10092      .   S
    H29    C60       1.10179      .   S
    H26    C57       1.10174      .   S
    H25    C56       1.10169      .   S
    H30    C61       1.10168      .   S
    C54    C52       1.56105      .   S
    C54    C62       1.57600  1_565   S
    C55    C53       1.56104      .   S
    C55    C63       1.57600  1_565   S
    C50    C48       1.56104      .   S
    C50    C58       1.57644      .   S
    C51    C49       1.56102      .   S
    C51    C59       1.57638      .   S
    C61    C53       1.55340  1_545   S
    C61    C63       1.56106      .   S
    C60    C52       1.55339  1_545   S
    C60    C62       1.56103      .   S
    C57    C49       1.55384      .   S
    C57    C59       1.56103      .   S
    C56    C48       1.55384      .   S
    C56    C58       1.56104      .   S
    C49    H17       1.10182      .   S
    C52    H21       1.10176      .   S
    C48    H16       1.10172      .   S
    C53    H22       1.10056      .   S
    C63    H32       1.10093      .   S
    C59    H28       1.10091      .   S
    C62    H31       1.10092      .   S
    C58    H27       1.10094      .   S
    H11    C43       1.10120      .   S
    H14    C46       1.10091      .   S
    H10    C42       1.10090      .   S
    H15    C47       1.10091      .   S
    H5     C37       1.10163      .   S
    H0     C33       1.10166      .   S
    H4     C20       1.10163      .   S
    H1     C34       1.10168      .   S
    C42    C40       1.56103      .   S
    C42    C35       1.57638      .   S
    C47    C45       1.56105      .   S
    C47    C39       1.57596  1_565   S
    C46    C44       1.56103      .   S
    C46    C38       1.57595  1_565   S
    C43    C41       1.56102      .   S
    C43    C36       1.57638      .   S
    C20    C44       1.55340  1_545   S
    C20    C38       1.56105      .   S
    C34    C41       1.55384      .   S
    C34    C36       1.56106      .   S
    C33    C40       1.55384      .   S
    C33    C35       1.56104      .   S
    C37    C45       1.55338  1_545   S
    C37    C39       1.56103      .   S
    C40    H8        1.10174      .   S
    C45    H13       1.10178      .   S
    C41    H9        1.10173      .   S
    C44    H12       1.10177      .   S
    C38    H6        1.10014      .   S
    C39    H7        1.10014      .   S
    C36    H3        1.10093      .   S
    C35    H2        1.10093      .   S
