# CIF file generated by openbabel 2.4.90, see http://openbabel.sf.net
data_I
_chemical_name_common ''
_cell_length_a 18.3
_cell_length_b 17.826
_cell_length_c 15.734
_cell_angle_alpha 90
_cell_angle_beta 90
_cell_angle_gamma 90
_space_group_name_H-M_alt 'P 1'
_space_group_name_Hall 'P 1'
loop_
    _symmetry_equiv_pos_as_xyz
    x,y,z
loop_
    _atom_site_label
    _atom_site_type_symbol
    _atom_site_fract_x
    _atom_site_fract_y
    _atom_site_fract_z
    _atom_site_occupancy
    Cd0     Cd   0.50000   0.25001   0.04646   1.000
    Cd1     Cd   0.00000   0.75002   0.45353   1.000
    Cd2     Cd   0.50000   0.75002   0.45353   1.000
    Cd3     Cd   1.00000   0.75002   0.95352   1.000
    Cd4     Cd   0.50000   0.75002   0.95352   1.000
    Cd5     Cd   1.00000   0.25001   0.54645   1.000
    Cd6     Cd   0.50000   0.25001   0.54645   1.000
    Cd7     Cd   0.00000   0.25001   0.04646   1.000
    Cl8     Cl   0.60020   0.64381   0.44648   1.000
    Cl9     Cl   0.39981   0.85623   0.44648   1.000
    Cl10    Cl   0.89981   0.85623   0.44640   1.000
    Cl11    Cl   0.39981   0.64381   0.94647   1.000
    Cl12    Cl   0.89981   0.64381   0.94647   1.000
    Cl13    Cl   0.10019   0.85623   0.94647   1.000
    Cl14    Cl   0.60019   0.85623   0.94647   1.000
    Cl15    Cl   0.39981   0.35622   0.55350   1.000
    Cl16    Cl   0.10019   0.35622   0.05351   1.000
    Cl17    Cl   0.60020   0.35622   0.05351   1.000
    Cl18    Cl   0.39981   0.14379   0.05351   1.000
    Cl19    Cl   0.89981   0.14379   0.05351   1.000
    Cl20    Cl   0.10019   0.64381   0.44648   1.000
    Cl21    Cl   0.89981   0.35622   0.55350   1.000
    Cl22    Cl   0.10019   0.14379   0.55350   1.000
    Cl23    Cl   0.60019   0.14379   0.55350   1.000
    Ts24    Ts   0.48087   0.27436   0.00824   1.000
    Ts25    Ts   0.51913   0.22565   0.00824   1.000
    Ts26    Ts   0.47242   0.27281   0.07740   1.000
    Ts27    Ts   0.52758   0.22720   0.07740   1.000
    Ts28    Ts   0.98087   0.72567   0.49174   1.000
    Ts29    Ts   0.01913   0.77437   0.49174   1.000
    Ts30    Ts   0.97242   0.72721   0.42259   1.000
    Ts31    Ts   0.02758   0.77283   0.42259   1.000
    Ts32    Ts   0.48087   0.72567   0.49172   1.000
    Ts33    Ts   0.51913   0.77437   0.49174   1.000
    Ts34    Ts   0.47242   0.72721   0.42235   1.000
    Ts35    Ts   0.52758   0.77282   0.42259   1.000
    Ts36    Ts   0.02758   0.72721   0.92258   1.000
    Ts37    Ts   0.97242   0.77283   0.92258   1.000
    Ts38    Ts   0.01913   0.72567   0.99174   1.000
    Ts39    Ts   0.98087   0.77437   0.99174   1.000
    Ts40    Ts   0.52758   0.72721   0.92258   1.000
    Ts41    Ts   0.47242   0.77283   0.92258   1.000
    Ts42    Ts   0.51913   0.72566   0.99174   1.000
    Ts43    Ts   0.48087   0.77437   0.99174   1.000
    Ts44    Ts   0.02758   0.27281   0.57739   1.000
    Ts45    Ts   0.97242   0.22720   0.57739   1.000
    Ts46    Ts   0.01913   0.27436   0.50824   1.000
    Ts47    Ts   0.98087   0.22565   0.50824   1.000
    Ts48    Ts   0.52758   0.27281   0.57737   1.000
    Ts49    Ts   0.47242   0.22720   0.57739   1.000
    Ts50    Ts   0.51913   0.27436   0.50824   1.000
    Ts51    Ts   0.48087   0.22565   0.50824   1.000
    Ts52    Ts   0.98087   0.27436   0.00824   1.000
    Ts53    Ts   0.01913   0.22565   0.00824   1.000
    Ts54    Ts   0.97242   0.27281   0.07740   1.000
    Ts55    Ts   0.02758   0.22720   0.07740   1.000
loop_
    _geom_bond_atom_site_label_1
    _geom_bond_atom_site_label_2
    _geom_bond_distance
    _geom_bond_site_symmetry_2
    _ccdc_geom_bond_type
    Cd0    Cl18      2.63798      .   S
    Cd0    Cl17      2.63798      .   S
    Cd7    Cl19      2.63794  1_455   S
    Cd7    Cl16      2.63798      .   S
    Cl10   Cd1       2.63799  1_655   S
    Cl20   Cd1       2.63798      .   S
    Cl8    Cd2       2.63799      .   S
    Cl9    Cd2       2.63798      .   S
    Cd6    Cl15      2.63799      .   S
    Cd6    Cl23      2.63798      .   S
    Cd5    Cl21      2.63793      .   S
    Cd5    Cl22      2.63797  1_655   S
    Cl11   Cd4       2.63798      .   S
    Cl12   Cd3       2.63793      .   S
    Cl13   Cd3       2.63798  1_455   S
    Cl14   Cd4       2.63798      .   S
    Cd0    Ts24      0.82013      .   S
    Cd0    Ts25      0.82011      .   S
    Cd0    Ts26      0.81056      .   S
    Cd0    Ts27      0.81055      .   S
    Cd1    Ts28      0.82006  1_455   S
    Cd1    Ts29      0.82004      .   S
    Cd1    Ts30      0.81057  1_455   S
    Cd1    Ts31      0.81058      .   S
    Cd2    Ts32      0.81981      .   S
    Cd2    Ts33      0.82004      .   S
    Cd2    Ts34      0.81278      .   S
    Cd2    Ts35      0.81057      .   S
    Cd3    Ts36      0.81057  1_655   S
    Cd3    Ts37      0.81056      .   S
    Cd3    Ts38      0.82011  1_655   S
    Cd3    Ts39      0.82010      .   S
    Cd4    Ts40      0.81057      .   S
    Cd4    Ts41      0.81058      .   S
    Cd4    Ts42      0.82013      .   S
    Cd4    Ts43      0.82012      .   S
    Cd5    Ts44      0.81059  1_655   S
    Cd5    Ts45      0.81056      .   S
    Cd5    Ts46      0.82006  1_655   S
    Cd5    Ts47      0.82004      .   S
    Cd6    Ts48      0.81033      .   S
    Cd6    Ts49      0.81058      .   S
    Cd6    Ts50      0.82007      .   S
    Cd6    Ts51      0.82004      .   S
    Cd7    Ts52      0.82012  1_455   S
    Cd7    Ts53      0.82011      .   S
    Cd7    Ts54      0.81056  1_455   S
    Cd7    Ts55      0.81055      .   S
