# CIF file generated by openbabel 2.4.90, see http://openbabel.sf.net
data_I
_chemical_name_common ''
_cell_length_a 18.3
_cell_length_b 17.826
_cell_length_c 15.734
_cell_angle_alpha 90
_cell_angle_beta 90
_cell_angle_gamma 90
_space_group_name_H-M_alt 'P 1'
_space_group_name_Hall 'P 1'
loop_
    _symmetry_equiv_pos_as_xyz
    x,y,z
loop_
    _atom_site_label
    _atom_site_type_symbol
    _atom_site_fract_x
    _atom_site_fract_y
    _atom_site_fract_z
    _atom_site_occupancy
    Zr0     Zr   0.00000   0.25001   0.04646   1.000
    Zr1     Zr   0.50000   0.25001   0.04646   1.000
    Zr2     Zr   0.00000   0.75002   0.45353   1.000
    Zr3     Zr   0.50000   0.75002   0.45353   1.000
    Zr4     Zr   1.00000   0.75002   0.95352   1.000
    Zr5     Zr   0.50000   0.75002   0.95352   1.000
    Zr6     Zr   1.00000   0.25001   0.54645   1.000
    Zr7     Zr   0.50000   0.25001   0.54645   1.000
    Zr8     Zr   0.10019   0.35622   0.05351   1.000
    Zr9     Zr   0.60020   0.35622   0.05351   1.000
    Zr10    Zr   0.39981   0.14379   0.05351   1.000
    Zr11    Zr   0.89981   0.14379   0.05351   1.000
    Zr12    Zr   0.10019   0.64381   0.44648   1.000
    Zr13    Zr   0.60020   0.64381   0.44648   1.000
    Zr14    Zr   0.39981   0.85623   0.44648   1.000
    Zr15    Zr   0.89981   0.85623   0.44640   1.000
    Zr16    Zr   0.39981   0.64381   0.94647   1.000
    Zr17    Zr   0.89981   0.64381   0.94647   1.000
    Zr18    Zr   0.10019   0.85623   0.94647   1.000
    Zr19    Zr   0.60019   0.85623   0.94647   1.000
    Zr20    Zr   0.39981   0.35622   0.55350   1.000
    Zr21    Zr   0.89981   0.35622   0.55350   1.000
    Zr22    Zr   0.10019   0.14379   0.55350   1.000
    Zr23    Zr   0.60019   0.14379   0.55350   1.000
    O24     O    0.44991   0.19690   0.04998   1.000
    O25     O    0.55010   0.30311   0.04998   1.000
    O26     O    0.94990   0.19690   0.04998   1.000
    O27     O    0.05010   0.30311   0.04998   1.000
    O28     O    0.94991   0.80313   0.44996   1.000
    O29     O    0.05010   0.69691   0.45000   1.000
    O30     O    0.55010   0.69691   0.45000   1.000
    O31     O    0.44990   0.80313   0.45000   1.000
    O32     O    0.44990   0.30311   0.54997   1.000
    O33     O    0.55010   0.19690   0.54997   1.000
    O34     O    0.94990   0.30311   0.54997   1.000
    O35     O    0.05010   0.19690   0.54997   1.000
    O36     O    0.44990   0.69691   0.94999   1.000
    O37     O    0.94990   0.69691   0.94999   1.000
    O38     O    0.05010   0.80313   0.94999   1.000
    O39     O    0.55010   0.80313   0.94999   1.000
    N40     N    0.28212   0.00001   0.24999   1.000
    O41     O    0.43906   0.82610   0.06919   1.000
    O42     O    0.08778   0.17775   0.13727   1.000
    O43     O    0.08778   0.82227   0.36271   1.000
    O44     O    0.43906   0.17369   0.43079   1.000
    N45     N    0.71788   0.00001   0.74998   1.000
    O46     O    0.56095   0.82610   0.56915   1.000
    O47     O    0.91222   0.17775   0.63726   1.000
    O48     O    0.91222   0.82227   0.86271   1.000
    O49     O    0.56095   0.17369   0.93079   1.000
    N50     N    0.21788   0.50001   0.24999   1.000
    O51     O    0.06095   0.67370   0.06919   1.000
    O52     O    0.41222   0.32226   0.13727   1.000
    O53     O    0.41222   0.67776   0.36250   1.000
    O54     O    0.06095   0.32632   0.43079   1.000
    N55     N    0.21788   0.00001   0.74998   1.000
    O56     O    0.06095   0.82610   0.56915   1.000
    O57     O    0.41222   0.17775   0.63726   1.000
    O58     O    0.41222   0.82227   0.86271   1.000
    O59     O    0.06094   0.17369   0.93079   1.000
    N60     N    0.78212   0.50001   0.74998   1.000
    O61     O    0.93906   0.67370   0.56918   1.000
    O62     O    0.58778   0.32226   0.63724   1.000
    O63     O    0.58778   0.67776   0.86271   1.000
    O64     O    0.93906   0.32632   0.93079   1.000
    N65     N    0.28212   0.50001   0.74999   1.000
    O66     O    0.43906   0.67370   0.56913   1.000
    O67     O    0.08778   0.32226   0.63726   1.000
    O68     O    0.08778   0.67776   0.86270   1.000
    O69     O    0.43906   0.32632   0.93079   1.000
    N70     N    0.71788   0.50001   0.24999   1.000
    O71     O    0.56095   0.67370   0.06919   1.000
    O72     O    0.91222   0.32226   0.13727   1.000
    O73     O    0.91222   0.67776   0.36271   1.000
    O74     O    0.56095   0.32632   0.43079   1.000
    N75     N    0.78212   0.00001   0.24998   1.000
    O76     O    0.93906   0.82610   0.06919   1.000
    O77     O    0.58778   0.17775   0.13727   1.000
    O78     O    0.93906   0.17369   0.43079   1.000
    O79     O    0.58778   0.82227   0.36271   1.000
loop_
    _geom_bond_atom_site_label_1
    _geom_bond_atom_site_label_2
    _geom_bond_distance
    _geom_bond_site_symmetry_2
    _ccdc_geom_bond_type
    Zr1    O24       1.31899      .   S
    Zr10   O24       1.31899      .   S
    Zr1    O25       1.31899      .   S
    Zr9    O25       1.31899      .   S
    Zr0    O26       1.31897  1_455   S
    Zr11   O26       1.31897      .   S
    Zr0    O27       1.31899      .   S
    Zr8    O27       1.31899      .   S
    Zr15   O28       1.31900      .   S
    Zr2    O28       1.31900  1_455   S
    Zr12   O29       1.31899      .   S
    Zr2    O29       1.31899      .   S
    Zr13   O30       1.31900      .   S
    Zr3    O30       1.31900      .   S
    Zr14   O31       1.31899      .   S
    Zr3    O31       1.31899      .   S
    Zr7    O32       1.31900      .   S
    Zr20   O32       1.31900      .   S
    Zr7    O33       1.31899      .   S
    Zr23   O33       1.31899      .   S
    Zr6    O34       1.31896      .   S
    Zr21   O34       1.31896      .   S
    Zr6    O35       1.31898  1_655   S
    Zr22   O35       1.31898      .   S
    Zr16   O36       1.31899      .   S
    Zr5    O36       1.31899      .   S
    Zr17   O37       1.31896      .   S
    Zr4    O37       1.31896      .   S
    Zr18   O38       1.31899      .   S
    Zr4    O38       1.31899  1_655   S
    Zr19   O39       1.31899      .   S
    Zr5    O39       1.31899      .   S
    N40    O41       5.09426  1_545   S
    Zr5    O41       2.52887  1_556   S
    N40    O42       5.08253      .   S
    Zr0    O42       2.50621      .   S
    N40    O43       5.08255  1_545   S
    Zr2    O43       2.50627      .   S
    N40    O44       5.09168      .   S
    Zr7    O44       2.53104      .   S
    N45    O46       5.09452  1_545   S
    Zr3    O46       2.52832      .   S
    N45    O47       5.08249      .   S
    Zr6    O47       2.50622      .   S
    N45    O48       5.08255  1_545   S
    Zr4    O48       2.50622      .   S
    N45    O49       5.09175      .   S
    Zr1    O49       2.53117  1_554   S
    N50    O51       5.09184      .   S
    Zr4    O51       2.53118  1_656   S
    N50    O52       5.08269      .   S
    Zr1    O52       2.50622      .   S
    N50    O53       5.08152      .   S
    Zr3    O53       2.50813      .   S
    N50    O54       5.09178      .   S
    Zr6    O54       2.53106  1_655   S
    N55    O56       5.09452  1_545   S
    Zr2    O56       2.52831      .   S
    N55    O57       5.08250      .   S
    Zr7    O57       2.50625      .   S
    N55    O58       5.08257  1_545   S
    Zr5    O58       2.50625      .   S
    N55    O59       5.09175      .   S
    Zr0    O59       2.53117  1_554   S
    N60    O61       5.09180      .   S
    Zr2    O61       2.53098  1_455   S
    N60    O62       5.08280      .   S
    Zr7    O62       2.50605      .   S
    N60    O63       5.08268      .   S
    Zr5    O63       2.50624      .   S
    N60    O64       5.09182      .   S
    Zr0    O64       2.53122  1_454   S
    N65    O66       5.09231      .   S
    Zr3    O66       2.53037      .   S
    N65    O67       5.08268      .   S
    Zr6    O67       2.50625  1_655   S
    N65    O68       5.08265      .   S
    Zr4    O68       2.50628  1_655   S
    N65    O69       5.09184      .   S
    Zr1    O69       2.53120  1_554   S
    N70    O71       5.09186      .   S
    Zr5    O71       2.53115  1_556   S
    N70    O72       5.08265      .   S
    Zr0    O72       2.50621  1_455   S
    N70    O73       5.08264      .   S
    Zr2    O73       2.50627  1_455   S
    N70    O74       5.09176      .   S
    Zr7    O74       2.53111      .   S
    N75    O76       5.09418  1_545   S
    Zr4    O76       2.52888  1_556   S
    N75    O77       5.08249      .   S
    Zr1    O77       2.50621      .   S
    N75    O78       5.09171      .   S
    Zr6    O78       2.53104      .   S
    N75    O79       5.08259  1_545   S
    Zr3    O79       2.50626      .   S
