# CIF file generated by openbabel 2.4.90, see http://openbabel.sf.net
data_I
_chemical_name_common ''
_cell_length_a 18.3
_cell_length_b 17.826
_cell_length_c 15.734
_cell_angle_alpha 90
_cell_angle_beta 90
_cell_angle_gamma 90
_space_group_name_H-M_alt 'P 1'
_space_group_name_Hall 'P 1'
loop_
    _symmetry_equiv_pos_as_xyz
    x,y,z
loop_
    _atom_site_label
    _atom_site_type_symbol
    _atom_site_fract_x
    _atom_site_fract_y
    _atom_site_fract_z
    _atom_site_occupancy
    N0      N    0.28212   0.00001   0.24999   1.000
    N1      N    0.71788   0.00001   0.74998   1.000
    N2      N    0.21788   0.50001   0.24999   1.000
    N3      N    0.21788   0.00001   0.74998   1.000
    N4      N    0.78212   0.50001   0.74998   1.000
    N5      N    0.28212   0.50001   0.74999   1.000
    N6      N    0.71788   0.50001   0.24999   1.000
    N7      N    0.78212   0.00001   0.24998   1.000
    Zr8     Zr   0.50000   0.25001   0.55115   1.000
    O9      O    0.54389   0.28613   0.59420   1.000
    O10     O    0.45611   0.21388   0.59421   1.000
    O11     O    0.46953   0.21185   0.49097   1.000
    O12     O    0.53047   0.28816   0.49097   1.000
    Zr13    Zr   0.00000   0.25001   0.55115   1.000
    O14     O    0.03047   0.28816   0.49097   1.000
    O15     O    0.96953   0.21185   0.49097   1.000
    O16     O    0.95611   0.21388   0.59421   1.000
    O17     O    0.04389   0.28613   0.59421   1.000
    Zr18    Zr   0.00000   0.25001   0.05116   1.000
    O19     O    0.96953   0.28816   0.99097   1.000
    O20     O    0.04389   0.21388   0.09421   1.000
    O21     O    0.95611   0.28613   0.09422   1.000
    O22     O    0.03047   0.21185   0.99097   1.000
    Zr23    Zr   0.50000   0.25001   0.05116   1.000
    O24     O    0.46953   0.28816   0.99097   1.000
    O25     O    0.45611   0.28613   0.09422   1.000
    O26     O    0.53047   0.21185   0.99097   1.000
    O27     O    0.54389   0.21388   0.09422   1.000
    Zr28    Zr   0.00000   0.75002   0.94882   1.000
    O29     O    0.96953   0.78806   0.00900   1.000
    O30     O    0.03047   0.71186   0.00900   1.000
    O31     O    0.04389   0.71389   0.90576   1.000
    O32     O    0.95611   0.78615   0.90576   1.000
    Zr33    Zr   0.50000   0.75002   0.44883   1.000
    O34     O    0.54389   0.78615   0.40577   1.000
    O35     O    0.46953   0.71186   0.50898   1.000
    O36     O    0.53047   0.78806   0.50899   1.000
    O37     O    0.45611   0.71389   0.40567   1.000
    Zr38    Zr   0.50000   0.75002   0.94882   1.000
    O39     O    0.45611   0.78615   0.90576   1.000
    O40     O    0.54389   0.71389   0.90576   1.000
    O41     O    0.46953   0.78806   0.00900   1.000
    O42     O    0.53047   0.71186   0.00900   1.000
    Zr43    Zr   0.00000   0.75002   0.44880   1.000
    O44     O    0.96953   0.71186   0.50899   1.000
    O45     O    0.03047   0.78806   0.50898   1.000
    O46     O    0.95611   0.71389   0.40576   1.000
    O47     O    0.04389   0.78615   0.40576   1.000
loop_
    _geom_bond_atom_site_label_1
    _geom_bond_atom_site_label_2
    _geom_bond_distance
    _geom_bond_site_symmetry_2
    _ccdc_geom_bond_type
    Zr8    O9        1.23232      .   S
    N4     O9        6.28894      .   S
    Zr8    O10       1.23242      .   S
    N3     O10       6.28869      .   S
    Zr8    O11       1.29236      .   S
    N0     O11       6.35589      .   S
    Zr8    O12       1.29239      .   S
    N6     O12       6.35599      .   S
    Zr13   O14       1.29237      .   S
    N2     O14       6.35599      .   S
    Zr13   O15       1.29236  1_455   S
    N7     O15       6.35592      .   S
    Zr13   O16       1.23241  1_455   S
    N1     O16       6.28867      .   S
    Zr13   O17       1.23241      .   S
    N5     O17       6.28887      .   S
    Zr18   O19       1.29245  1_454   S
    N4     O19       6.35610      .   S
    Zr18   O20       1.23239      .   S
    N0     O20       6.28870      .   S
    Zr18   O21       1.23241  1_455   S
    N6     O21       6.28882      .   S
    Zr18   O22       1.29242  1_554   S
    N3     O22       6.35601      .   S
    Zr23   O24       1.29244  1_554   S
    N5     O24       6.35611      .   S
    Zr23   O25       1.23241      .   S
    N2     O25       6.28887      .   S
    Zr23   O26       1.29243  1_554   S
    N1     O26       6.35602      .   S
    Zr23   O27       1.23240      .   S
    N7     O27       6.28867      .   S
    Zr28   O29       1.29131  1_456   S
    N7     O29       6.35711  1_545   S
    Zr28   O30       1.29243  1_556   S
    N2     O30       6.35610      .   S
    Zr28   O31       1.23243      .   S
    N5     O31       6.28883      .   S
    Zr28   O32       1.23241  1_455   S
    N1     O32       6.28873  1_545   S
    Zr33   O34       1.23242      .   S
    N7     O34       6.28880  1_545   S
    Zr33   O35       1.29202      .   S
    N5     O35       6.35627      .   S
    Zr33   O36       1.29102      .   S
    N1     O36       6.35724  1_545   S
    Zr33   O37       1.23333      .   S
    N2     O37       6.28822      .   S
    Zr38   O39       1.23242      .   S
    N3     O39       6.28876  1_545   S
    Zr38   O40       1.23241      .   S
    N4     O40       6.28887      .   S
    Zr38   O41       1.29130  1_556   S
    N0     O41       6.35720  1_545   S
    Zr38   O42       1.29242  1_556   S
    N6     O42       6.35612      .   S
    Zr43   O44       1.29249  1_455   S
    N4     O44       6.35610      .   S
    Zr43   O45       1.29117      .   S
    N3     O45       6.35736  1_545   S
    Zr43   O46       1.23232  1_455   S
    N6     O46       6.28876      .   S
    Zr43   O47       1.23231      .   S
    N0     O47       6.28866  1_545   S
