# CIF file generated by openbabel 2.4.90, see http://openbabel.sf.net
data_I
_chemical_name_common 'VESTA_phase_1'
_cell_length_a 13.144
_cell_length_b 13.126
_cell_length_c 13.66
_cell_angle_alpha 89.933
_cell_angle_beta 89.933
_cell_angle_gamma 89.989
_space_group_name_H-M_alt 'P 1'
_space_group_name_Hall 'P 1'
loop_
    _symmetry_equiv_pos_as_xyz
    x,y,z
loop_
    _atom_site_label
    _atom_site_type_symbol
    _atom_site_fract_x
    _atom_site_fract_y
    _atom_site_fract_z
    _atom_site_occupancy
    Ag0     Ag   0.82580   0.33292   0.75044   1.000
    Ag1     Ag   0.67554   0.16852   0.75137   1.000
    Ag2     Ag   0.66743   0.32510   0.25070   1.000
    Ag3     Ag   0.83115   0.17422   0.25102   1.000
    Ag4     Ag   0.17416   0.66704   0.24952   1.000
    Ag5     Ag   0.32442   0.83145   0.24857   1.000
    Ag6     Ag   0.33249   0.67483   0.74925   1.000
    Ag7     Ag   0.16885   0.82578   0.74897   1.000
    H8      H    0.08281   0.31129   0.79432   1.000
    H9      H    0.08619   0.35677   0.67149   1.000
    H10     H    0.15908   0.42137   0.76546   1.000
    H11     H    0.04097   0.79386   0.97700   1.000
    H12     H    0.11786   0.85597   0.06829   1.000
    H13     H    0.00581   0.78965   0.10582   1.000
    H14     H    0.41724   0.18854   0.79284   1.000
    H15     H    0.41565   0.14254   0.67025   1.000
    H16     H    0.34235   0.07761   0.76399   1.000
    H17     H    0.45980   0.70616   0.97670   1.000
    H18     H    0.38294   0.64370   0.06805   1.000
    H19     H    0.49440   0.71090   0.10544   1.000
    H20     H    0.68848   0.58312   0.29420   1.000
    H21     H    0.64313   0.58636   0.17143   1.000
    H22     H    0.57817   0.65896   0.26554   1.000
    H23     H    0.20605   0.54019   0.47729   1.000
    H24     H    0.14390   0.61701   0.56871   1.000
    H25     H    0.21068   0.50504   0.60596   1.000
    H26     H    0.81033   0.91682   0.29468   1.000
    H27     H    0.85569   0.91383   0.17183   1.000
    H28     H    0.92043   0.84072   0.26572   1.000
    H29     H    0.29292   0.95892   0.47500   1.000
    H30     H    0.35587   0.88239   0.56614   1.000
    H31     H    0.28952   0.99458   0.60350   1.000
    H32     H    0.91717   0.68873   0.20566   1.000
    H33     H    0.91379   0.64326   0.32848   1.000
    H34     H    0.84086   0.57868   0.23452   1.000
    H35     H    0.95900   0.20615   0.02289   1.000
    H36     H    0.88215   0.14402   0.93168   1.000
    H37     H    0.99418   0.21037   0.89416   1.000
    H38     H    0.58279   0.81138   0.20714   1.000
    H39     H    0.58434   0.85739   0.32972   1.000
    H40     H    0.65767   0.92232   0.23600   1.000
    H41     H    0.54020   0.29371   0.02329   1.000
    H42     H    0.61704   0.35620   0.93195   1.000
    H43     H    0.50559   0.28900   0.89455   1.000
    H44     H    0.31149   0.41681   0.70574   1.000
    H45     H    0.35684   0.41357   0.82850   1.000
    H46     H    0.42182   0.34099   0.73440   1.000
    H47     H    0.79394   0.45980   0.52262   1.000
    H48     H    0.85606   0.38296   0.43121   1.000
    H49     H    0.78929   0.49493   0.39395   1.000
    H50     H    0.18967   0.08318   0.70527   1.000
    H51     H    0.14433   0.08618   0.82813   1.000
    H52     H    0.07958   0.15928   0.73423   1.000
    H53     H    0.70709   0.04104   0.52499   1.000
    H54     H    0.64412   0.11758   0.43380   1.000
    H55     H    0.71047   0.00539   0.39648   1.000
    C56     C    0.12065   0.62050   0.86075   1.000
    C57     C    0.05643   0.55812   0.93210   1.000
    C58     C    0.99137   0.48048   0.89843   1.000
    C59     C    0.06409   0.57833   0.03323   1.000
    C60     C    0.08923   0.37951   0.74868   1.000
    C61     C    0.06822   0.79077   0.05283   1.000
    C62     C    0.38060   0.88009   0.86016   1.000
    C63     C    0.44414   0.94219   0.93183   1.000
    C64     C    0.50931   0.01995   0.89847   1.000
    C65     C    0.43562   0.92151   0.03287   1.000
    C66     C    0.41198   0.12009   0.74750   1.000
    C67     C    0.43219   0.70920   0.05238   1.000
    C68     C    0.37898   0.61928   0.36046   1.000
    C69     C    0.44161   0.55575   0.43198   1.000
    C70     C    0.51963   0.49102   0.39845   1.000
    C71     C    0.42134   0.56395   0.53307   1.000
    C72     C    0.62036   0.58923   0.24866   1.000
    C73     C    0.20917   0.56754   0.55298   1.000
    C74     C    0.11928   0.87909   0.36030   1.000
    C75     C    0.05733   0.94326   0.43193   1.000
    C76     C    0.97973   0.00852   0.39854   1.000
    C77     C    0.07836   0.93565   0.53290   1.000
    C78     C    0.87845   0.91063   0.24900   1.000
    C79     C    0.29049   0.93187   0.55087   1.000
    C80     C    0.87930   0.37948   0.13922   1.000
    C81     C    0.94347   0.44191   0.06786   1.000
    C82     C    0.00854   0.51952   0.10154   1.000
    C83     C    0.93583   0.42165   0.96673   1.000
    C84     C    0.91073   0.62052   0.25100   1.000
    C85     C    0.93176   0.20924   0.94715   1.000
    C86     C    0.61940   0.11985   0.13978   1.000
    C87     C    0.55589   0.05770   0.06810   1.000
    C88     C    0.49072   0.97994   0.10150   1.000
    C89     C    0.56440   0.07842   0.96709   1.000
    C90     C    0.58803   0.87984   0.25242   1.000
    C91     C    0.56780   0.29068   0.94761   1.000
    C92     C    0.62101   0.38073   0.63951   1.000
    C93     C    0.55835   0.44422   0.56797   1.000
    C94     C    0.48034   0.50897   0.60151   1.000
    C95     C    0.57864   0.43604   0.46688   1.000
    C96     C    0.37961   0.41071   0.75129   1.000
    C97     C    0.79079   0.43244   0.44694   1.000
    C98     C    0.88072   0.12091   0.63958   1.000
    C99     C    0.94267   0.05673   0.56804   1.000
    C100    C    0.02028   0.99147   0.60144   1.000
    C101    C    0.92163   0.06434   0.46708   1.000
    C102    C    0.12156   0.08937   0.75095   1.000
    C103    C    0.70951   0.06810   0.44912   1.000
    S104    S    0.98140   0.46353   0.76886   1.000
    S105    S    0.14891   0.67901   0.06658   1.000
    S106    S    0.52040   0.03715   0.76896   1.000
    S107    S    0.35079   0.82050   0.06560   1.000
    S108    S    0.53692   0.48087   0.26890   1.000
    S109    S    0.32050   0.64870   0.56626   1.000
    S110    S    0.96214   0.01871   0.26904   1.000
    S111    S    0.17923   0.85081   0.56580   1.000
    S112    S    0.01853   0.53646   0.23111   1.000
    S113    S    0.85102   0.32096   0.93338   1.000
    S114    S    0.47960   0.96277   0.23101   1.000
    S115    S    0.64925   0.17942   0.93435   1.000
    S116    S    0.46303   0.51909   0.73106   1.000
    S117    S    0.67947   0.35126   0.43370   1.000
    S118    S    0.03786   0.98129   0.73094   1.000
    S119    S    0.82076   0.14917   0.43418   1.000
    O120    O    0.08403   0.70656   0.83764   1.000
    O121    O    0.20388   0.58065   0.83420   1.000
    O122    O    0.41767   0.79426   0.83710   1.000
    O123    O    0.29753   0.91998   0.83334   1.000
    O124    O    0.29330   0.58198   0.33763   1.000
    O125    O    0.41831   0.70268   0.33349   1.000
    O126    O    0.20506   0.91598   0.33705   1.000
    O127    O    0.07956   0.79581   0.33388   1.000
    O128    O    0.91596   0.29343   0.16233   1.000
    O129    O    0.79606   0.41928   0.16573   1.000
    O130    O    0.58229   0.20566   0.16285   1.000
    O131    O    0.70248   0.08000   0.16662   1.000
    O132    O    0.70669   0.41803   0.66233   1.000
    O133    O    0.58169   0.29733   0.66647   1.000
    O134    O    0.79494   0.08403   0.66291   1.000
    O135    O    0.92044   0.20420   0.66607   1.000
loop_
    _geom_bond_atom_site_label_1
    _geom_bond_atom_site_label_2
    _geom_bond_distance
    _geom_bond_site_symmetry_2
    _ccdc_geom_bond_type
    H35    C85       1.09592  1_554   S
    H41    C91       1.09597  1_554   S
    C65    S107      1.78861      .   S
    C65    C88       1.41253      .   S
    C65    C63       1.41065  1_554   S
    C59    S105      1.78888      .   S
    C59    C82       1.41302      .   S
    C59    C57       1.41070  1_554   S
    C67    S107      1.81958      .   S
    C67    H18       1.09707      .   S
    C67    H19       1.09358      .   S
    C67    H17       1.09600  1_554   S
    C61    S105      1.81963      .   S
    C61    H12       1.09711      .   S
    C61    H13       1.09355      .   S
    C61    H11       1.09712  1_554   S
    S107   Ag5       2.52713      .   S
    S105   Ag4       2.52600      .   S
    C81    C82       1.40835  1_655   S
    C81    C80       1.52625      .   S
    C81    C83       1.41080  1_554   S
    C87    C88       1.40784  1_545   S
    C87    C86       1.52474      .   S
    C87    C89       1.41035  1_554   S
    C88    S114      1.78897      .   S
    C82    S112      1.78907      .   S
    C80    O128      1.26755      .   S
    C80    O129      1.26515      .   S
    C86    O130      1.26736      .   S
    C86    O131      1.26519      .   S
    O128   Ag3       2.26982      .   S
    O130   Ag2       2.27126      .   S
    O129   Ag2       2.39308      .   S
    O131   Ag3       2.39320      .   S
    H21    C72       1.09694      .   S
    H27    C78       1.09687      .   S
    H32    C84       1.09140      .   S
    H38    C90       1.09370      .   S
    S114   Ag5       2.68103      .   S
    S114   C90       1.81689      .   S
    S112   Ag4       2.68129      .   S
    S112   C84       1.81611  1_455   S
    H34    C84       1.09388      .   S
    H40    C90       1.09471      .   S
    Ag5    Ag4       2.92568      .   S
    Ag5    O125      2.39237      .   S
    Ag5    O126      2.26961      .   S
    C72    H22       1.09475      .   S
    C72    S108      1.81696      .   S
    C72    H20       1.09372      .   S
    C78    H28       1.09466      .   S
    C78    S110      1.81656  1_565   S
    C78    H26       1.09380      .   S
    Ag4    O127      2.39399      .   S
    Ag4    O124      2.26891      .   S
    Ag2    Ag3       2.92431      .   S
    Ag2    S108      2.68024      .   S
    Ag2    S117      2.52879      .   S
    C84    H33       1.10077      .   S
    Ag3    S110      2.68147      .   S
    Ag3    S119      2.52664      .   S
    C90    H39       1.09696      .   S
    S108   C70       1.78903      .   S
    S110   C76       1.78913      .   S
    O125   C68       1.26492      .   S
    O127   C74       1.26468      .   S
    O126   C74       1.26714      .   S
    O124   C68       1.26755      .   S
    C74    C75       1.52636      .   S
    C68    C69       1.52546      .   S
    H49    C97       1.09349      .   S
    H55    C103      1.09360      .   S
    C70    C69       1.40820      .   S
    C70    C95       1.41280      .   S
    C76    C75       1.40783  1_645   S
    C76    C101      1.41286      .   S
    H48    C97       1.09708      .   S
    C75    C77       1.41043      .   S
    C69    C71       1.41027      .   S
    S117   C97       1.81958      .   S
    S117   C95       1.78863      .   S
    H54    C103      1.09727      .   S
    S119   C103      1.81976      .   S
    S119   C101      1.78874      .   S
    C97    H47       1.09561      .   S
    C103   H53       1.09558      .   S
    C95    C93       1.41030      .   S
    C101   C99       1.41031      .   S
    H29    C79       1.09555      .   S
    H23    C73       1.09568      .   S
    C77    S111      1.78871      .   S
    C77    C100      1.41286      .   S
    C71    S109      1.78865      .   S
    C71    C94       1.41285      .   S
    C79    S111      1.81974      .   S
    C79    H30       1.09708      .   S
    C79    H31       1.09357      .   S
    C73    S109      1.81957      .   S
    C73    H24       1.09709      .   S
    C73    H25       1.09349      .   S
    S111   Ag7       2.52674      .   S
    S109   Ag6       2.52855      .   S
    C93    C94       1.40823      .   S
    C93    C92       1.52555      .   S
    C99    C100      1.40786  1_645   S
    C99    C98       1.52563      .   S
    C100   S118      1.78912      .   S
    C94    S116      1.78904      .   S
    C92    O132      1.26754      .   S
    C92    O133      1.26490      .   S
    C98    O134      1.26740      .   S
    C98    O135      1.26500      .   S
    O132   Ag0       2.26897      .   S
    O134   Ag1       2.26957      .   S
    O135   Ag0       2.39395      .   S
    O133   Ag1       2.39232      .   S
    H15    C66       1.09630      .   S
    H9     C60       1.09697      .   S
    H50    C102      1.09377      .   S
    H44    C96       1.09379      .   S
    S118   Ag7       2.68135      .   S
    S118   C102      1.81654  1_565   S
    S116   Ag6       2.68021      .   S
    S116   C96       1.81697      .   S
    H52    C102      1.09465      .   S
    H46    C96       1.09476      .   S
    C66    H16       1.09486      .   S
    C66    S106      1.81699      .   S
    C66    H14       1.09412      .   S
    C60    H10       1.09471      .   S
    C60    S104      1.81671  1_455   S
    C60    H8        1.09370      .   S
    Ag7    Ag6       2.92423      .   S
    Ag7    O123      2.39310      .   S
    Ag7    O120      2.26977      .   S
    Ag6    O121      2.39279      .   S
    Ag6    O122      2.27139      .   S
    Ag0    Ag1       2.92558      .   S
    Ag0    S104      2.68122      .   S
    Ag0    S113      2.52592      .   S
    C102   H51       1.09702      .   S
    C96    H45       1.09668      .   S
    Ag1    S106      2.68117      .   S
    Ag1    S115      2.52711      .   S
    S104   C58       1.78907      .   S
    S106   C64       1.78898      .   S
    O123   C62       1.26518      .   S
    O121   C56       1.26536      .   S
    O122   C62       1.26734      .   S
    O120   C56       1.26755      .   S
    C62    C63       1.52463      .   S
    C56    C57       1.52628      .   S
    H37    C85       1.09362      .   S
    H43    C91       1.09361      .   S
    C58    C57       1.40838  1_655   S
    C58    C83       1.41306      .   S
    C64    C63       1.40777  1_545   S
    C64    C89       1.41260      .   S
    H36    C85       1.09715      .   S
    H42    C91       1.09710      .   S
    S113   C85       1.81967      .   S
    S113   C83       1.78888      .   S
    S115   C91       1.81959      .   S
    S115   C89       1.78864      .   S
