# CIF file generated by openbabel 2.4.90, see http://openbabel.sf.net
data_I
_chemical_name_common ''
_cell_length_a 17.215
_cell_length_b 17.395
_cell_length_c 18.482
_cell_angle_alpha 90.039
_cell_angle_beta 90.019
_cell_angle_gamma 90.14
_space_group_name_H-M_alt 'P 1'
_space_group_name_Hall 'P 1'
loop_
    _symmetry_equiv_pos_as_xyz
    x,y,z
loop_
    _atom_site_label
    _atom_site_type_symbol
    _atom_site_fract_x
    _atom_site_fract_y
    _atom_site_fract_z
    _atom_site_occupancy
    Cd0     Cd   0.27392   0.50669   0.47779   1.000
    Cd1     Cd   0.27274   0.99370   0.97863   1.000
    Cd2     Cd   0.77389   0.50682   0.02203   1.000
    Cd3     Cd   0.72727   0.00628   0.02134   1.000
    Cd4     Cd   0.22612   0.49317   0.97794   1.000
    Cd5     Cd   0.22717   0.00613   0.47818   1.000
    Cd6     Cd   0.72609   0.49330   0.52210   1.000
    H7      H    0.60384   0.94376   0.62142   1.000
    H8      H    0.47384   0.03860   0.62785   1.000
    H9      H    0.64243   0.13557   0.48696   1.000
    H10     H    0.38825   0.10214   0.54102   1.000
    H11     H    0.30222   0.21503   0.52218   1.000
    H12     H    0.50143   0.36407   0.51497   1.000
    H13     H    0.58818   0.25330   0.53814   1.000
    H14     H    0.70783   0.06314   0.35977   1.000
    H15     H    0.70138   0.97848   0.23232   1.000
    H16     H    0.79438   0.84170   0.40243   1.000
    H17     H    0.73564   0.74060   0.33840   1.000
    H18     H    0.75264   0.63067   0.25405   1.000
    H19     H    0.78545   0.78649   0.07687   1.000
    H20     H    0.77493   0.89763   0.16069   1.000
    H21     H    0.10472   0.55692   0.37828   1.000
    H22     H    0.97445   0.46189   0.37201   1.000
    H23     H    0.14302   0.36509   0.51260   1.000
    H24     H    0.88876   0.39801   0.45870   1.000
    H25     H    0.80253   0.28488   0.47753   1.000
    H26     H    0.00139   0.13632   0.48433   1.000
    H27     H    0.08835   0.24735   0.46130   1.000
    H28     H    0.20868   0.43723   0.63973   1.000
    H29     H    0.20149   0.52180   0.76713   1.000
    H30     H    0.29502   0.65926   0.59740   1.000
    H31     H    0.23563   0.76019   0.66182   1.000
    Cd32    Cd   0.77285   0.99387   0.52180   1.000
    H33     H    0.25161   0.86985   0.74674   1.000
    H34     H    0.28512   0.71346   0.92326   1.000
    H35     H    0.27511   0.60266   0.83896   1.000
    H36     H    0.10378   0.94350   0.87892   1.000
    H37     H    0.97384   0.03836   0.87225   1.000
    H38     H    0.14244   0.13575   0.01311   1.000
    H39     H    0.88826   0.10219   0.95881   1.000
    H40     H    0.80224   0.21511   0.97756   1.000
    H41     H    0.00143   0.36417   0.98477   1.000
    H42     H    0.08817   0.25335   0.96174   1.000
    H43     H    0.20701   0.06271   0.14066   1.000
    H44     H    0.20084   0.97801   0.26798   1.000
    H45     H    0.29436   0.84157   0.09777   1.000
    H46     H    0.23550   0.74029   0.16165   1.000
    H47     H    0.25251   0.63041   0.24596   1.000
    H48     H    0.28550   0.78637   0.42321   1.000
    H49     H    0.27489   0.89745   0.33945   1.000
    H50     H    0.60477   0.55724   0.12153   1.000
    H51     H    0.47448   0.46222   0.12787   1.000
    H52     H    0.64295   0.36513   0.98727   1.000
    H53     H    0.38867   0.39804   0.04126   1.000
    H54     H    0.30248   0.28476   0.02289   1.000
    H55     H    0.50144   0.13631   0.01627   1.000
    H56     H    0.58839   0.24752   0.03867   1.000
    H57     H    0.70827   0.43748   0.85994   1.000
    H58     H    0.70122   0.52204   0.73264   1.000
    H59     H    0.79514   0.65933   0.90245   1.000
    H60     H    0.73561   0.76037   0.83814   1.000
    H61     H    0.75157   0.86996   0.75326   1.000
    H62     H    0.78524   0.71341   0.57672   1.000
    H63     H    0.77521   0.60269   0.66097   1.000
    H64     H    0.89623   0.05648   0.12105   1.000
    H65     H    0.02617   0.96162   0.12773   1.000
    H66     H    0.85757   0.86424   0.98686   1.000
    H67     H    0.11175   0.89779   0.04117   1.000
    H68     H    0.19777   0.78487   0.02242   1.000
    H69     H    0.99858   0.63582   0.01518   1.000
    H70     H    0.91184   0.74664   0.03822   1.000
    H71     H    0.79299   0.93726   0.85931   1.000
    H72     H    0.79917   0.02196   0.73190   1.000
    H73     H    0.70566   0.15842   0.90219   1.000
    H74     H    0.76458   0.25968   0.83831   1.000
    H75     H    0.74759   0.36957   0.75401   1.000
    H76     H    0.71450   0.21362   0.57676   1.000
    H77     H    0.72510   0.10254   0.66051   1.000
    H78     H    0.39524   0.44275   0.87840   1.000
    H79     H    0.52553   0.53776   0.87210   1.000
    H80     H    0.35705   0.63486   0.01269   1.000
    H81     H    0.61133   0.60195   0.95871   1.000
    H82     H    0.69752   0.71522   0.97708   1.000
    H83     H    0.49857   0.86368   0.98370   1.000
    H84     H    0.41161   0.75247   0.96130   1.000
    H85     H    0.29178   0.56249   0.14002   1.000
    H86     H    0.29883   0.47793   0.26732   1.000
    H87     H    0.20485   0.34066   0.09751   1.000
    H88     H    0.26438   0.23960   0.16180   1.000
    H89     H    0.24840   0.13002   0.24670   1.000
    H90     H    0.21478   0.28657   0.42325   1.000
    H91     H    0.22482   0.39729   0.33899   1.000
    H92     H    0.39615   0.05622   0.37855   1.000
    H93     H    0.52615   0.96139   0.37212   1.000
    H94     H    0.35756   0.86441   0.51300   1.000
    H95     H    0.61174   0.89785   0.45894   1.000
    H96     H    0.69778   0.78497   0.47778   1.000
    H97     H    0.49857   0.63592   0.48501   1.000
    H98     H    0.41182   0.74669   0.46180   1.000
    H99     H    0.29220   0.93687   0.64021   1.000
    C100    C    0.78086   0.86561   0.60952   1.000
    C101    C    0.90831   0.00289   0.09338   1.000
    C102    C    0.97276   0.95695   0.09711   1.000
    C103    C    0.88551   0.90416   0.02363   1.000
    H104    H    0.29863   0.02152   0.76767   1.000
    H105    H    0.20564   0.15830   0.59755   1.000
    H106    H    0.26436   0.25939   0.66158   1.000
    H107    H    0.24736   0.36932   0.74592   1.000
    H108    H    0.21456   0.21351   0.92311   1.000
    H109    H    0.22507   0.10237   0.83929   1.000
    H110    H    0.89529   0.44306   0.62164   1.000
    H111    H    0.02556   0.53809   0.62793   1.000
    H112    H    0.85701   0.63491   0.48732   1.000
    H113    H    0.11127   0.60199   0.54122   1.000
    H114    H    0.19750   0.71513   0.52240   1.000
    H115    H    0.99863   0.86369   0.51573   1.000
    H116    H    0.91167   0.75265   0.53869   1.000
    H117    H    0.79131   0.56275   0.36023   1.000
    H118    H    0.79851   0.47819   0.23280   1.000
    H119    H    0.70497   0.34073   0.40249   1.000
    H120    H    0.76438   0.23980   0.33815   1.000
    H121    H    0.74840   0.13013   0.25322   1.000
    H122    H    0.71488   0.28652   0.07670   1.000
    H123    H    0.72489   0.39732   0.16101   1.000
    C124    C    0.59174   0.99726   0.59360   1.000
    C125    C    0.52727   0.04319   0.59726   1.000
    C126    C    0.61451   0.09576   0.52375   1.000
    C127    C    0.49319   0.17071   0.54107   1.000
    C128    C    0.41282   0.15973   0.53716   1.000
    C129    C    0.36474   0.22296   0.52689   1.000
    C130    C    0.39628   0.29679   0.51910   1.000
    C131    C    0.47707   0.30664   0.52100   1.000
    C132    C    0.22691   0.29857   0.83921   1.000
    C133    C    0.22283   0.22313   0.86547   1.000
    C134    C    0.23045   0.16080   0.81880   1.000
    C135    C    0.21796   0.36563   0.88945   1.000
    C136    C    0.90743   0.49661   0.59389   1.000
    C137    C    0.52574   0.24410   0.53345   1.000
    C138    C    0.34333   0.36430   0.50912   1.000
    C139    C    0.72352   0.00000   0.34929   1.000
    C140    C    0.71993   0.96248   0.28628   1.000
    C141    C    0.76877   0.89006   0.37447   1.000
    C142    C    0.75605   0.82609   0.25478   1.000
    C143    C    0.74936   0.75107   0.28166   1.000
    C144    C    0.75850   0.68937   0.23451   1.000
    C145    C    0.77310   0.70142   0.16070   1.000
    C146    C    0.77718   0.77686   0.13451   1.000
    C147    C    0.76955   0.83920   0.18119   1.000
    C148    C    0.78204   0.63437   0.11052   1.000
    C149    C    0.09258   0.50338   0.40604   1.000
    C150    C    0.02792   0.45737   0.40251   1.000
    C151    C    0.11515   0.40487   0.47587   1.000
    C152    C    0.99357   0.32971   0.45857   1.000
    C153    C    0.91323   0.34049   0.46252   1.000
    C154    C    0.86503   0.27712   0.47277   1.000
    C155    C    0.89642   0.20338   0.48049   1.000
    C156    C    0.97717   0.19370   0.47804   1.000
    C157    C    0.02594   0.25639   0.46603   1.000
    C158    C    0.84333   0.13578   0.49068   1.000
    C159    C    0.22425   0.49657   0.65029   1.000
    C160    C    0.22031   0.53795   0.71328   1.000
    C161    C    0.26939   0.61070   0.62531   1.000
    C162    C    0.25610   0.67447   0.74513   1.000
    C163    C    0.24921   0.74957   0.71856   1.000
    C164    C    0.25779   0.81113   0.76605   1.000
    C165    C    0.27232   0.79886   0.83978   1.000
    C166    C    0.27683   0.72331   0.86566   1.000
    C167    C    0.26957   0.66114   0.81869   1.000
    C168    C    0.28081   0.86562   0.89053   1.000
    C169    C    0.09170   0.99710   0.90600   1.000
    C170    C    0.02724   0.04304   0.90286   1.000
    C171    C    0.11450   0.09582   0.97634   1.000
    C172    C    0.99321   0.17075   0.95882   1.000
    C173    C    0.91284   0.15978   0.96268   1.000
    C174    C    0.86476   0.22304   0.97289   1.000
    C175    C    0.89629   0.29688   0.98069   1.000
    C176    C    0.97708   0.30673   0.97839   1.000
    C177    C    0.02573   0.24415   0.96640   1.000
    C178    C    0.84333   0.36438   0.99073   1.000
    C179    C    0.22292   0.00000   0.15107   1.000
    C180    C    0.21945   0.96210   0.21401   1.000
    C181    C    0.26854   0.88984   0.12577   1.000
    C182    C    0.25593   0.82582   0.24535   1.000
    C183    C    0.24924   0.75079   0.21840   1.000
    C184    C    0.25839   0.68913   0.26552   1.000
    C185    C    0.27305   0.70125   0.33927   1.000
    C186    C    0.27716   0.77671   0.36557   1.000
    C187    C    0.26950   0.83900   0.31894   1.000
    C188    C    0.28203   0.63427   0.38900   1.000
    C189    C    0.59260   0.50364   0.09380   1.000
    C190    C    0.52794   0.45764   0.09735   1.000
    C191    C    0.61510   0.40499   0.02401   1.000
    C192    C    0.49354   0.32982   0.04147   1.000
    C193    C    0.41318   0.34052   0.03759   1.000
    C194    C    0.36499   0.27706   0.02763   1.000
    C195    C    0.39639   0.20328   0.02019   1.000
    C196    C    0.47717   0.19370   0.02246   1.000
    C197    C    0.52596   0.25650   0.03409   1.000
    C198    C    0.34332   0.13556   0.01039   1.000
    C199    C    0.72399   0.49678   0.84946   1.000
    C200    C    0.72010   0.53815   0.78652   1.000
    C201    C    0.76940   0.61082   0.87457   1.000
    C202    C    0.75615   0.67458   0.75481   1.000
    C203    C    0.74919   0.74970   0.78100   1.000
    C204    C    0.75779   0.81121   0.73394   1.000
    C205    C    0.77234   0.79888   0.66020   1.000
    C206    C    0.77691   0.72331   0.63432   1.000
    C207    C    0.76962   0.66119   0.68125   1.000
    C208    C    0.00680   0.82924   0.04115   1.000
    C209    C    0.08717   0.84021   0.03730   1.000
    C210    C    0.13525   0.77695   0.02700   1.000
    C211    C    0.10371   0.70311   0.01928   1.000
    C212    C    0.02292   0.69326   0.02150   1.000
    C213    C    0.97428   0.75583   0.03356   1.000
    C214    C    0.15668   0.63561   0.00920   1.000
    C215    C    0.77708   0.99645   0.84890   1.000
    C216    C    0.78055   0.03788   0.78595   1.000
    C217    C    0.73147   0.11014   0.87420   1.000
    C218    C    0.74410   0.17416   0.75461   1.000
    C219    C    0.75082   0.24919   0.78156   1.000
    C220    C    0.74167   0.31085   0.73444   1.000
    C221    C    0.72700   0.29874   0.66069   1.000
    C222    C    0.72285   0.22328   0.63440   1.000
    C223    C    0.73051   0.16098   0.68103   1.000
    C224    C    0.71800   0.36572   0.61047   1.000
    C225    C    0.40740   0.49635   0.90617   1.000
    C226    C    0.47206   0.54235   0.90262   1.000
    C227    C    0.38490   0.59500   0.97595   1.000
    C228    C    0.50646   0.67017   0.95849   1.000
    C229    C    0.58682   0.65946   0.96238   1.000
    C230    C    0.63501   0.72292   0.97234   1.000
    C231    C    0.60361   0.79671   0.97978   1.000
    C232    C    0.52284   0.80629   0.97751   1.000
    C233    C    0.47404   0.74350   0.96588   1.000
    C234    C    0.65668   0.86442   0.98958   1.000
    C235    C    0.27605   0.50319   0.15050   1.000
    C236    C    0.27994   0.46181   0.21344   1.000
    C237    C    0.23061   0.38917   0.12500   1.000
    C238    C    0.24386   0.32540   0.24515   1.000
    C239    C    0.25081   0.25028   0.21857   1.000
    C240    C    0.24219   0.18876   0.26602   1.000
    C241    C    0.22766   0.20110   0.33975   1.000
    C242    C    0.22309   0.27668   0.36564   1.000
    C243    C    0.23040   0.33879   0.31870   1.000
    C244    C    0.21914   0.13438   0.39045   1.000
    C245    C    0.40825   0.00273   0.40632   1.000
    C246    C    0.47272   0.95680   0.40270   1.000
    C247    C    0.38548   0.90423   0.47621   1.000
    C248    C    0.50681   0.82928   0.45890   1.000
    C249    C    0.58718   0.84027   0.46280   1.000
    C250    C    0.63526   0.77703   0.47307   1.000
    C251    C    0.60372   0.70321   0.48087   1.000
    C252    C    0.52293   0.69335   0.47858   1.000
    C253    C    0.47426   0.75589   0.46652   1.000
    C254    C    0.65667   0.63570   0.49086   1.000
    C255    C    0.27650   0.99610   0.65000   1.000
    C256    C    0.28008   0.03751   0.71370   1.000
    C257    C    0.23126   0.10994   0.62550   1.000
    C258    C    0.24395   0.17390   0.74521   1.000
    C259    C    0.25064   0.24892   0.71832   1.000
    C260    C    0.24151   0.31062   0.76546   1.000
    C261    C    0.97210   0.54262   0.59740   1.000
    C262    C    0.88487   0.59513   0.52407   1.000
    C263    C    0.00645   0.67028   0.54140   1.000
    C264    C    0.08679   0.65951   0.53746   1.000
    C265    C    0.13500   0.72288   0.52724   1.000
    C266    C    0.10360   0.79663   0.51955   1.000
    C267    C    0.02285   0.80630   0.52199   1.000
    C268    C    0.97408   0.74361   0.53397   1.000
    C269    C    0.15669   0.86422   0.50935   1.000
    C270    C    0.77574   0.50341   0.34967   1.000
    C271    C    0.77969   0.46203   0.28660   1.000
    C272    C    0.73060   0.38928   0.37465   1.000
    C273    C    0.74389   0.32552   0.25484   1.000
    C274    C    0.75080   0.25042   0.28140   1.000
    C275    C    0.74221   0.18886   0.23392   1.000
    C276    C    0.72768   0.20113   0.16018   1.000
    C277    C    0.72317   0.27668   0.13431   1.000
    C278    C    0.73043   0.33884   0.18120   1.000
    C279    C    0.71919   0.13436   0.10944   1.000
    N280    N    0.64563   0.03049   0.54749   1.000
    N281    N    0.54249   0.10605   0.55290   1.000
    N282    N    0.75403   0.95825   0.40365   1.000
    N283    N    0.74858   0.88976   0.30289   1.000
    N284    N    0.14646   0.47019   0.45209   1.000
    N285    N    0.04302   0.39451   0.44680   1.000
    N286    N    0.25492   0.54241   0.59605   1.000
    N287    N    0.24891   0.61087   0.69682   1.000
    N288    N    0.14560   0.03046   0.95273   1.000
    N289    N    0.04249   0.10604   0.94713   1.000
    N290    N    0.25358   0.95798   0.09667   1.000
    N291    N    0.24834   0.88948   0.19732   1.000
    N292    N    0.64644   0.47036   0.04775   1.000
    N293    N    0.54300   0.39469   0.05306   1.000
    N294    N    0.75479   0.54255   0.90376   1.000
    N295    N    0.74886   0.61101   0.80306   1.000
    N296    N    0.85441   0.96952   0.04724   1.000
    N297    N    0.95752   0.89394   0.05284   1.000
    N298    N    0.74642   0.04200   0.90330   1.000
    N299    N    0.75168   0.11050   0.80264   1.000
    N300    N    0.35356   0.52963   0.95222   1.000
    N301    N    0.45700   0.60530   0.94690   1.000
    N302    N    0.24522   0.45743   0.09621   1.000
    N303    N    0.25116   0.38897   0.19690   1.000
    N304    N    0.35437   0.96950   0.45248   1.000
    N305    N    0.45750   0.89393   0.44707   1.000
    N306    N    0.24600   0.04175   0.59633   1.000
    N307    N    0.25144   0.11023   0.69700   1.000
    N308    N    0.85356   0.52980   0.54783   1.000
    N309    N    0.95700   0.60548   0.55311   1.000
    N310    N    0.74507   0.45758   0.40391   1.000
    N311    N    0.75109   0.38912   0.30315   1.000
    O312    O    0.37298   0.42390   0.47820   1.000
    O313    O    0.27382   0.35996   0.53089   1.000
    O314    O    0.79662   0.64656   0.04391   1.000
    O315    O    0.77281   0.56666   0.13655   1.000
    O316    O    0.87283   0.07627   0.52161   1.000
    O317    O    0.77375   0.13999   0.46903   1.000
    O318    O    0.29679   0.85323   0.95674   1.000
    O319    O    0.26997   0.93341   0.86521   1.000
    O320    O    0.87298   0.42403   0.02168   1.000
    O321    O    0.77379   0.35998   0.96000   1.000
    O322    O    0.29662   0.64654   0.45611   1.000
    O323    O    0.27277   0.56653   0.36344   1.000
    O324    O    0.37311   0.07549   0.98063   1.000
    O325    O    0.27347   0.14018   0.03110   1.000
    O326    O    0.79682   0.85321   0.54331   1.000
    O327    O    0.76995   0.93339   0.63490   1.000
    O328    O    0.12703   0.57596   0.97829   1.000
    O329    O    0.22622   0.64001   0.03098   1.000
    O330    O    0.70339   0.35345   0.54386   1.000
    O331    O    0.72726   0.43346   0.63652   1.000
    O332    O    0.62690   0.92450   0.01935   1.000
    O333    O    0.72654   0.85981   0.96887   1.000
    O334    O    0.20319   0.14678   0.45666   1.000
    O335    O    0.23006   0.06660   0.36507   1.000
    O336    O    0.62703   0.57610   0.52177   1.000
    O337    O    0.72618   0.64003   0.46907   1.000
    O338    O    0.20339   0.35344   0.95606   1.000
    O339    O    0.22720   0.43333   0.86342   1.000
    O340    O    0.12719   0.92374   0.47840   1.000
    O341    O    0.22628   0.86000   0.53097   1.000
    O342    O    0.70323   0.14675   0.04323   1.000
    O343    O    0.73004   0.06658   0.13476   1.000
loop_
    _geom_bond_atom_site_label_1
    _geom_bond_atom_site_label_2
    _geom_bond_distance
    _geom_bond_site_symmetry_2
    _ccdc_geom_bond_type
    C214   C211      1.50001      .   S
    C214   O329      1.26500      .   S
    C214   O328      1.28836  1_554   S
    C198   C195      1.49976      .   S
    C198   O325      1.26489      .   S
    C198   O324      1.28826  1_554   S
    H80    C227      1.08302  1_554   S
    H38    C171      1.08306  1_554   S
    H69    C212      1.08882  1_655   S
    H55    C196      1.08911      .   S
    C211   C212      1.40150      .   S
    C211   C210      1.40041      .   S
    O332   Cd3       2.23581  1_565   S
    O332   C234      1.28834  1_554   S
    C195   C196      1.40155      .   S
    C195   C194      1.40061      .   S
    Cd3    O342      2.51186      .   S
    Cd3    N296      2.33125  1_545   S
    Cd3    O343      2.34376      .   S
    Cd3    N298      2.29249  1_554   S
    C212   C213      1.39284  1_455   S
    O320   Cd2       2.23511      .   S
    O320   C178      1.28867  1_554   S
    Cd2    O314      2.49388      .   S
    Cd2    N292      2.33146      .   S
    Cd2    O315      2.35818      .   S
    Cd2    N294      2.29672  1_554   S
    H68    C210      1.08809      .   S
    C196   C197      1.39280      .   S
    H54    C194      1.08820      .   S
    C103   N296      1.33121      .   S
    C103   N297      1.36404      .   S
    C103   H66       1.08304  1_554   S
    C191   N292      1.33147      .   S
    C191   N293      1.36409      .   S
    C191   H52       1.08300  1_554   S
    C210   C209      1.39151      .   S
    C194   C193      1.39136      .   S
    C213   H70       1.08981      .   S
    C213   C208      1.39996  1_655   S
    C197   H56       1.08974      .   S
    C197   C192      1.40014      .   S
    C209   C208      1.39802      .   S
    C209   H67       1.08877      .   S
    C193   H53       1.08882      .   S
    C193   C192      1.39811      .   S
    C208   N297      1.42743  1_455   S
    C192   N293      1.42791      .   S
    O342   C279      1.27273      .   S
    O314   C148      1.27428      .   S
    N296   C101      1.38603  1_565   S
    N292   C189      1.38600      .   S
    N297   C102      1.39166      .   S
    N293   C190      1.39164      .   S
    H122   C277      1.08795      .   S
    H19    C146      1.08785      .   S
    C101   C102      1.37076  1_545   S
    C101   H64       1.08355      .   S
    C189   C190      1.37092      .   S
    C189   H50       1.08359      .   S
    N302   C237      1.32505      .   S
    N302   C235      1.38517      .   S
    N302   Cd4       2.29678  1_554   S
    N290   C181      1.32769      .   S
    N290   C179      1.35091  1_565   S
    N290   Cd1       2.29251  1_554   S
    C102   H65       1.08232  1_655   S
    C190   H51       1.08267      .   S
    H87    C237      1.07900      .   S
    H45    C181      1.08245      .   S
    C279   O343      1.28295      .   S
    C279   C276      1.49905      .   S
    C148   O315      1.28209      .   S
    C148   C145      1.49795      .   S
    C237   N303      1.37502      .   S
    C181   N291      1.36751      .   S
    C277   C276      1.40111      .   S
    C277   C278      1.39070      .   S
    C146   C145      1.40064      .   S
    C146   C147      1.39171      .   S
    H85    C235      1.08338      .   S
    H43    C179      1.14185      .   S
    C235   C236      1.37008      .   S
    C179   C180      1.33877  1_545   S
    C276   C275      1.40210      .   S
    H20    C147      1.08869      .   S
    C145   C144      1.40300      .   S
    H123   C278      1.08816      .   S
    H46    C183      1.09034      .   S
    H88    C239      1.09091      .   S
    C147   C142      1.39864      .   S
    C278   C273      1.40006      .   S
    N303   C236      1.39323      .   S
    N303   C238      1.42630      .   S
    N291   C180      1.39315      .   S
    N291   C182      1.42582      .   S
    C236   H86       1.08392      .   S
    C180   H44       1.08377      .   S
    C183   C182      1.40114      .   S
    C183   C184      1.39128      .   S
    C239   C238      1.40114      .   S
    C239   C240      1.39166      .   S
    H15    C140      1.08378      .   S
    H118   C271      1.08297      .   S
    C275   H121      1.08774      .   S
    C275   C274      1.39160      .   S
    C144   H18       1.08775      .   S
    C144   C143      1.39128      .   S
    C238   C243      1.39851      .   S
    C182   C187      1.39858      .   S
    H47    C184      1.08772      .   S
    H89    C240      1.08778      .   S
    C142   C143      1.40110      .   S
    C142   N283      1.42594      .   S
    C273   C274      1.40116      .   S
    C273   N311      1.42630      .   S
    C184   C185      1.40183      .   S
    C240   C241      1.40201      .   S
    C274   H120      1.09051      .   S
    C143   H17       1.09035      .   S
    C140   N283      1.39326      .   S
    C140   C139      1.33589  1_565   S
    C271   N311      1.39365      .   S
    C271   C270      1.37139      .   S
    N283   C141      1.36772      .   S
    N311   C272      1.36786      .   S
    C243   H91       1.08872      .   S
    C243   C242      1.39166      .   S
    C187   H49       1.08858      .   S
    C187   C186      1.39146      .   S
    C185   C186      1.40098      .   S
    C185   C188      1.49280      .   S
    C241   C242      1.40104      .   S
    C241   C244      1.49913      .   S
    C139   H14       1.14799      .   S
    C139   N282      1.34729  1_545   S
    C270   H117      1.08337      .   S
    C270   N310      1.38518      .   S
    O323   C188      1.27876      .   S
    O323   Cd0       2.35659      .   S
    O335   C244      1.28298      .   S
    O335   Cd5       2.34132      .   S
    C186   H48       1.08777      .   S
    C242   H90       1.08802      .   S
    H22    C150      1.08229  1_655   S
    H93    C246      1.08253      .   S
    C141   H16       1.08236      .   S
    C141   N282      1.32775      .   S
    C272   H119      1.08245      .   S
    C272   N310      1.32796      .   S
    H21    C149      1.08363      .   S
    H92    C245      1.08356      .   S
    C188   O322      1.28304      .   S
    C244   O334      1.27261      .   S
    C150   C149      1.37094      .   S
    C150   N285      1.39132      .   S
    C246   C245      1.37078  1_565   S
    C246   N305      1.39174      .   S
    N282   Cd32      2.29215      .   S
    N310   Cd6       2.29435      .   S
    C149   N284      1.38593      .   S
    C245   N304      1.38601  1_545   S
    N285   C152      1.42762  1_455   S
    N285   C151      1.36424      .   S
    N305   C248      1.42763      .   S
    N305   C247      1.36400      .   S
    N284   C151      1.33147      .   S
    N284   Cd0       2.33129      .   S
    N304   C247      1.33112      .   S
    N304   Cd5       2.33104  1_565   S
    O322   Cd0       2.49556      .   S
    O334   Cd5       2.51409      .   S
    C152   C153      1.39809      .   S
    C152   C157      1.39993  1_655   S
    H24    C153      1.08886      .   S
    C248   C249      1.39800      .   S
    C248   C253      1.40008      .   S
    H95    C249      1.08879      .   S
    H27    C157      1.08975      .   S
    H98    C253      1.08984      .   S
    C153   C154      1.39127      .   S
    C249   C250      1.39130      .   S
    C157   C156      1.39256  1_455   S
    C253   C252      1.39288      .   S
    O317   C158      1.26507      .   S
    O337   C254      1.26472      .   S
    C154   H25       1.08823      .   S
    C154   C155      1.40056      .   S
    C250   H96       1.08824      .   S
    C250   C251      1.40056      .   S
    C151   H23       1.08250      .   S
    C247   H94       1.08271      .   S
    Cd0    O312      2.23485      .   S
    Cd0    N286      2.29560      .   S
    C156   C155      1.40144      .   S
    C156   H26       1.08896  1_655   S
    Cd5    O340      2.23698  1_545   S
    Cd5    N306      2.29218      .   S
    O312   C138      1.28847      .   S
    O340   C269      1.28845      .   S
    C252   C251      1.40152      .   S
    C252   H97       1.08911      .   S
    C155   C158      1.49942      .   S
    C251   C254      1.49986      .   S
    H9     C126      1.08270      .   S
    H112   C262      1.08273      .   S
    C158   O316      1.28830      .   S
    C254   O336      1.28841      .   S
    C138   C130      1.49981      .   S
    C138   O313      1.26465      .   S
    C269   C266      1.49941      .   S
    C269   O341      1.26501      .   S
    H12    C131      1.08834      .   S
    H115   C267      1.08895  1_655   S
    C130   C131      1.40132      .   S
    C130   C129      1.40055      .   S
    C266   C267      1.40145      .   S
    C266   C265      1.40056      .   S
    C131   C137      1.39404      .   S
    O316   Cd32      2.23706  1_545   S
    O336   Cd6       2.23485      .   S
    Cd32   O326      2.51429      .   S
    Cd32   N280      2.33121  1_565   S
    Cd32   O327      2.34129      .   S
    C267   C268      1.39255  1_455   S
    Cd6    O330      2.49586      .   S
    Cd6    N308      2.33158      .   S
    Cd6    O331      2.35779      .   S
    H11    C129      1.08825      .   S
    H114   C265      1.08837      .   S
    C126   N280      1.33121      .   S
    C126   N281      1.36406      .   S
    C262   N308      1.33138      .   S
    C262   N309      1.36399      .   S
    C129   C128      1.39131      .   S
    C265   C264      1.39124      .   S
    C137   H13       1.08979      .   S
    C137   C127      1.40008      .   S
    C268   H116      1.08977      .   S
    C268   C263      1.39994  1_655   S
    C128   H10       1.08879      .   S
    C128   C127      1.39802      .   S
    C264   H113      1.08882      .   S
    C264   C263      1.39812      .   S
    C127   N281      1.42764      .   S
    C263   N309      1.42751  1_455   S
    O326   C100      1.27264      .   S
    O330   C224      1.27418      .   S
    N280   C124      1.38545  1_545   S
    N308   C136      1.38601      .   S
    N281   C125      1.39162      .   S
    N309   C261      1.39136      .   S
    H62    C206      1.08785      .   S
    H76    C222      1.08780      .   S
    C124   C125      1.37082  1_565   S
    C124   H7        1.08400      .   S
    C136   C261      1.37091      .   S
    C136   H110      1.08357      .   S
    N286   C161      1.32796      .   S
    N286   C159      1.38517      .   S
    N306   C257      1.32766      .   S
    N306   C255      1.37588  1_545   S
    C125   H8        1.08263      .   S
    H30    C161      1.08306      .   S
    C261   H111      1.08252  1_655   S
    H105   C257      1.08229      .   S
    C100   O327      1.28297      .   S
    C100   C205      1.49894      .   S
    C224   O331      1.28215      .   S
    C224   C221      1.49843      .   S
    C161   N287      1.36801      .   S
    C257   N307      1.36625      .   S
    C206   C205      1.40097      .   S
    C206   C207      1.39157      .   S
    C222   C221      1.40095      .   S
    C222   C223      1.39150      .   S
    H28    C159      1.08338      .   S
    H99    C255      1.08106      .   S
    C255   C256      1.38105  1_565   S
    C159   C160      1.37011      .   S
    C205   C204      1.40221      .   S
    H77    C223      1.08864      .   S
    C221   C220      1.40189      .   S
    H63    C207      1.08864      .   S
    H106   C259      1.09034      .   S
    H31    C163      1.09034      .   S
    C223   C218      1.39844      .   S
    C207   C202      1.39872      .   S
    N287   C160      1.39330      .   S
    N287   C162      1.42630      .   S
    N307   C256      1.39361      .   S
    N307   C258      1.42710      .   S
    C160   H29       1.08380      .   S
    C256   H104      1.08393      .   S
    C259   C258      1.40114      .   S
    C259   C260      1.39118      .   S
    C163   C162      1.40122      .   S
    C163   C164      1.39170      .   S
    H72    C216      1.08514      .   S
    H58    C200      1.08388      .   S
    C204   H61       1.08779      .   S
    C204   C203      1.38714      .   S
    C220   H75       1.08778      .   S
    C220   C219      1.39134      .   S
    C162   C167      1.39867      .   S
    C258   C134      1.39865      .   S
    H107   C260      1.08774      .   S
    H33    C164      1.08778      .   S
    C218   C219      1.40114      .   S
    C218   N299      1.42583      .   S
    C202   C203      1.39862      .   S
    C202   N295      1.42630      .   S
    C260   C132      1.40192      .   S
    C164   C165      1.40194      .   S
    C203   H60       1.09751      .   S
    C219   H74       1.09039      .   S
    C216   N299      1.39317      .   S
    C216   C215      1.37020  1_545   S
    C200   N295      1.39323      .   S
    C200   C199      1.37005      .   S
    N299   C217      1.36770      .   S
    N295   C201      1.36800      .   S
    C167   H35       1.08866      .   S
    C167   C166      1.39160      .   S
    C134   H109      1.08861      .   S
    C134   C133      1.39162      .   S
    C132   C133      1.40106      .   S
    C132   C135      1.49863      .   S
    C165   C166      1.40117      .   S
    C165   C168      1.49916      .   S
    C215   H71       1.08330      .   S
    C215   N298      1.38514  1_565   S
    C199   H57       1.08337      .   S
    C199   N294      1.38525      .   S
    O339   C135      1.28208      .   S
    O339   Cd4       2.35814      .   S
    O319   C168      1.28295      .   S
    O319   Cd1       2.34373      .   S
    C133   H108      1.08784      .   S
    C166   H34       1.08778      .   S
    H79    C226      1.08270      .   S
    H37    C170      1.08221  1_655   S
    C217   H73       1.08239      .   S
    C217   N298      1.32767      .   S
    C201   H59       1.08238      .   S
    C201   N294      1.32805      .   S
    H78    C225      1.08395      .   S
    H36    C169      1.07848      .   S
    C135   O338      1.27427      .   S
    C168   O318      1.27278      .   S
    C226   C225      1.37090      .   S
    C226   N301      1.39155      .   S
    C170   C169      1.37026  1_545   S
    C170   N289      1.39170      .   S
    C169   N288      1.39279  1_565   S
    C225   N300      1.38604      .   S
    N301   C228      1.42791      .   S
    N301   C227      1.36409      .   S
    N289   C172      1.42744  1_455   S
    N289   C171      1.36404      .   S
    N300   C227      1.33141      .   S
    N300   Cd4       2.33140      .   S
    N288   C171      1.33122      .   S
    N288   Cd1       2.33129  1_545   S
    O338   Cd4       2.49379      .   S
    O318   Cd1       2.51186      .   S
    C228   C229      1.39812      .   S
    C228   C233      1.40016      .   S
    H81    C229      1.08884      .   S
    H39    C173      1.08879      .   S
    C172   C173      1.39801      .   S
    C172   C177      1.39994  1_655   S
    O321   C178      1.32689      .   S
    H84    C233      1.08974      .   S
    H42    C177      1.08980      .   S
    C229   C230      1.39134      .   S
    C173   C174      1.39130      .   S
    C233   C232      1.39281      .   S
    C177   C176      1.39265  1_455   S
    O333   C234      1.26491      .   S
    C230   H82       1.08820      .   S
    C230   C231      1.40061      .   S
    C174   H40       1.08822      .   S
    C174   C175      1.40056      .   S
    C232   C231      1.40153      .   S
    C232   H83       1.08911      .   S
    Cd4    O328      2.23504      .   S
    C176   C175      1.40154      .   S
    C176   H41       1.08894  1_655   S
    Cd1    O324      2.23578  1_565   S
    C231   C234      1.49977      .   S
    C175   C178      1.49992      .   S
