# CIF file generated by openbabel 2.4.90, see http://openbabel.sf.net
data_I
_chemical_name_common ''
_cell_length_a 17.215
_cell_length_b 17.395
_cell_length_c 18.482
_cell_angle_alpha 90.039
_cell_angle_beta 90.019
_cell_angle_gamma 90.14
_space_group_name_H-M_alt 'P 1'
_space_group_name_Hall 'P 1'
loop_
    _symmetry_equiv_pos_as_xyz
    x,y,z
loop_
    _atom_site_label
    _atom_site_type_symbol
    _atom_site_fract_x
    _atom_site_fract_y
    _atom_site_fract_z
    _atom_site_occupancy
    Cd0     Cd   0.27392   0.50669   0.47779   1.000
    Cd1     Cd   0.27274   0.99370   0.97863   1.000
    Cd2     Cd   0.77389   0.50682   0.02203   1.000
    Cd3     Cd   0.72727   0.00628   0.02134   1.000
    Cd4     Cd   0.22612   0.49317   0.97794   1.000
    Cd5     Cd   0.22717   0.00613   0.47818   1.000
    Cd6     Cd   0.72609   0.49330   0.52210   1.000
    Cd7     Cd   0.77285   0.99387   0.52180   1.000
