# CIF file generated by openbabel 2.4.90, see http://openbabel.sf.net
data_I
_chemical_name_common ''
_cell_length_a 17.215
_cell_length_b 17.395
_cell_length_c 18.482
_cell_angle_alpha 90.039
_cell_angle_beta 90.019
_cell_angle_gamma 90.14
_space_group_name_H-M_alt 'P 1'
_space_group_name_Hall 'P 1'
loop_
    _symmetry_equiv_pos_as_xyz
    x,y,z
loop_
    _atom_site_label
    _atom_site_type_symbol
    _atom_site_fract_x
    _atom_site_fract_y
    _atom_site_fract_z
    _atom_site_occupancy
    C0      C    0.77285   0.99387   0.52180   1.000
    C1      C    0.27392   0.50669   0.47779   1.000
    C2      C    0.27274   0.99370   0.97863   1.000
    C3      C    0.77389   0.50682   0.02203   1.000
    C4      C    0.72727   0.00628   0.02134   1.000
    C5      C    0.22612   0.49317   0.97794   1.000
    C6      C    0.22717   0.00613   0.47818   1.000
    C7      C    0.72609   0.49330   0.52210   1.000
    C8      C    0.60384   0.94376   0.62142   1.000
    C9      C    0.47384   0.03860   0.62785   1.000
    C10     C    0.64243   0.13557   0.48696   1.000
    C11     C    0.38825   0.10214   0.54102   1.000
    C12     C    0.30222   0.21503   0.52218   1.000
    C13     C    0.50143   0.36407   0.51497   1.000
    C14     C    0.58818   0.25330   0.53814   1.000
    C15     C    0.70783   0.06314   0.35977   1.000
    C16     C    0.70138   0.97848   0.23232   1.000
    C17     C    0.79438   0.84170   0.40243   1.000
    C18     C    0.73564   0.74060   0.33840   1.000
    C19     C    0.75264   0.63067   0.25405   1.000
    C20     C    0.78545   0.78649   0.07687   1.000
    C21     C    0.77493   0.89763   0.16069   1.000
    C22     C    0.10472   0.55692   0.37828   1.000
    C23     C    0.97445   0.46189   0.37201   1.000
    C24     C    0.14302   0.36509   0.51260   1.000
    C25     C    0.88876   0.39801   0.45870   1.000
    C26     C    0.80253   0.28488   0.47753   1.000
    C27     C    0.00139   0.13632   0.48433   1.000
    C28     C    0.08835   0.24735   0.46130   1.000
    C29     C    0.20868   0.43723   0.63973   1.000
    C30     C    0.20149   0.52180   0.76713   1.000
    C31     C    0.29502   0.65926   0.59740   1.000
    C32     C    0.23563   0.76019   0.66182   1.000
    C33     C    0.25161   0.86985   0.74674   1.000
    C34     C    0.28512   0.71346   0.92326   1.000
    C35     C    0.27511   0.60266   0.83896   1.000
    C36     C    0.10378   0.94350   0.87892   1.000
    C37     C    0.97384   0.03836   0.87225   1.000
    C38     C    0.14244   0.13575   0.01311   1.000
    C39     C    0.88826   0.10219   0.95881   1.000
    C40     C    0.80224   0.21511   0.97756   1.000
    C41     C    0.00143   0.36417   0.98477   1.000
    C42     C    0.08817   0.25335   0.96174   1.000
    C43     C    0.20701   0.06271   0.14066   1.000
    C44     C    0.20084   0.97801   0.26798   1.000
    C45     C    0.29436   0.84157   0.09777   1.000
    C46     C    0.23550   0.74029   0.16165   1.000
    C47     C    0.25251   0.63041   0.24596   1.000
    C48     C    0.28550   0.78637   0.42321   1.000
    C49     C    0.27489   0.89745   0.33945   1.000
    C50     C    0.60477   0.55724   0.12153   1.000
    C51     C    0.47448   0.46222   0.12787   1.000
    C52     C    0.64295   0.36513   0.98727   1.000
    C53     C    0.38867   0.39804   0.04126   1.000
    C54     C    0.30248   0.28476   0.02289   1.000
    C55     C    0.50144   0.13631   0.01627   1.000
    C56     C    0.58839   0.24752   0.03867   1.000
    C57     C    0.70827   0.43748   0.85994   1.000
    C58     C    0.70122   0.52204   0.73264   1.000
    C59     C    0.79514   0.65933   0.90245   1.000
    C60     C    0.73561   0.76037   0.83814   1.000
    C61     C    0.75157   0.86996   0.75326   1.000
    C62     C    0.78524   0.71341   0.57672   1.000
    C63     C    0.77521   0.60269   0.66097   1.000
    C64     C    0.89623   0.05648   0.12105   1.000
    C65     C    0.02617   0.96162   0.12773   1.000
    C66     C    0.85757   0.86424   0.98686   1.000
    C67     C    0.11175   0.89779   0.04117   1.000
    C68     C    0.19777   0.78487   0.02242   1.000
    C69     C    0.99858   0.63582   0.01518   1.000
    C70     C    0.91184   0.74664   0.03822   1.000
    C71     C    0.79299   0.93726   0.85931   1.000
    C72     C    0.79917   0.02196   0.73190   1.000
    C73     C    0.70566   0.15842   0.90219   1.000
    C74     C    0.76458   0.25968   0.83831   1.000
    C75     C    0.74759   0.36957   0.75401   1.000
    C76     C    0.71450   0.21362   0.57676   1.000
    C77     C    0.72510   0.10254   0.66051   1.000
    C78     C    0.39524   0.44275   0.87840   1.000
    C79     C    0.52553   0.53776   0.87210   1.000
    C80     C    0.35705   0.63486   0.01269   1.000
    C81     C    0.61133   0.60195   0.95871   1.000
    C82     C    0.69752   0.71522   0.97708   1.000
    C83     C    0.49857   0.86368   0.98370   1.000
    C84     C    0.41161   0.75247   0.96130   1.000
    C85     C    0.29178   0.56249   0.14002   1.000
    C86     C    0.29883   0.47793   0.26732   1.000
    C87     C    0.20485   0.34066   0.09751   1.000
    C88     C    0.26438   0.23960   0.16180   1.000
    C89     C    0.24840   0.13002   0.24670   1.000
    C90     C    0.21478   0.28657   0.42325   1.000
    C91     C    0.22482   0.39729   0.33899   1.000
    C92     C    0.39615   0.05622   0.37855   1.000
    C93     C    0.52615   0.96139   0.37212   1.000
    C94     C    0.35756   0.86441   0.51300   1.000
    C95     C    0.61174   0.89785   0.45894   1.000
    C96     C    0.69778   0.78497   0.47778   1.000
    C97     C    0.49857   0.63592   0.48501   1.000
    C98     C    0.41182   0.74669   0.46180   1.000
    C99     C    0.29220   0.93687   0.64021   1.000
    C100    C    0.29863   0.02152   0.76767   1.000
    C101    C    0.20564   0.15830   0.59755   1.000
    C102    C    0.26436   0.25939   0.66158   1.000
    C103    C    0.24736   0.36932   0.74592   1.000
    C104    C    0.21456   0.21351   0.92311   1.000
    C105    C    0.22507   0.10237   0.83929   1.000
    C106    C    0.89529   0.44306   0.62164   1.000
    C107    C    0.02556   0.53809   0.62793   1.000
    C108    C    0.85701   0.63491   0.48732   1.000
    C109    C    0.11127   0.60199   0.54122   1.000
    C110    C    0.19750   0.71513   0.52240   1.000
    C111    C    0.99863   0.86369   0.51573   1.000
    C112    C    0.91167   0.75265   0.53869   1.000
    C113    C    0.79131   0.56275   0.36023   1.000
    C114    C    0.79851   0.47819   0.23280   1.000
    C115    C    0.70497   0.34073   0.40249   1.000
    C116    C    0.76438   0.23980   0.33815   1.000
    C117    C    0.74840   0.13013   0.25322   1.000
    C118    C    0.71488   0.28652   0.07670   1.000
    C119    C    0.72489   0.39732   0.16101   1.000
    C120    C    0.59174   0.99726   0.59360   1.000
    C121    C    0.52727   0.04319   0.59726   1.000
    C122    C    0.61451   0.09576   0.52375   1.000
    C123    C    0.49319   0.17071   0.54107   1.000
    C124    C    0.41282   0.15973   0.53716   1.000
    C125    C    0.36474   0.22296   0.52689   1.000
    C126    C    0.39628   0.29679   0.51910   1.000
    C127    C    0.47707   0.30664   0.52100   1.000
    C128    C    0.52574   0.24410   0.53345   1.000
    C129    C    0.34333   0.36430   0.50912   1.000
    C130    C    0.72352   0.00000   0.34929   1.000
    C131    C    0.71993   0.96248   0.28628   1.000
    C132    C    0.76877   0.89006   0.37447   1.000
    C133    C    0.75605   0.82609   0.25478   1.000
    C134    C    0.74936   0.75107   0.28166   1.000
    C135    C    0.75850   0.68937   0.23451   1.000
    C136    C    0.77310   0.70142   0.16070   1.000
    C137    C    0.77718   0.77686   0.13451   1.000
    C138    C    0.76955   0.83920   0.18119   1.000
    C139    C    0.78204   0.63437   0.11052   1.000
    C140    C    0.09258   0.50338   0.40604   1.000
    C141    C    0.02792   0.45737   0.40251   1.000
    C142    C    0.11515   0.40487   0.47587   1.000
    C143    C    0.99357   0.32971   0.45857   1.000
    C144    C    0.91323   0.34049   0.46252   1.000
    C145    C    0.86503   0.27712   0.47277   1.000
    C146    C    0.89642   0.20338   0.48049   1.000
    C147    C    0.97717   0.19370   0.47804   1.000
    C148    C    0.02594   0.25639   0.46603   1.000
    C149    C    0.84333   0.13578   0.49068   1.000
    C150    C    0.22425   0.49657   0.65029   1.000
    C151    C    0.22031   0.53795   0.71328   1.000
    C152    C    0.26939   0.61070   0.62531   1.000
    C153    C    0.25610   0.67447   0.74513   1.000
    C154    C    0.24921   0.74957   0.71856   1.000
    C155    C    0.25779   0.81113   0.76605   1.000
    C156    C    0.27232   0.79886   0.83978   1.000
    C157    C    0.27683   0.72331   0.86566   1.000
    C158    C    0.26957   0.66114   0.81869   1.000
    C159    C    0.28081   0.86562   0.89053   1.000
    C160    C    0.09170   0.99710   0.90600   1.000
    C161    C    0.02724   0.04304   0.90286   1.000
    C162    C    0.11450   0.09582   0.97634   1.000
    C163    C    0.99321   0.17075   0.95882   1.000
    C164    C    0.91284   0.15978   0.96268   1.000
    C165    C    0.86476   0.22304   0.97289   1.000
    C166    C    0.89629   0.29688   0.98069   1.000
    C167    C    0.97708   0.30673   0.97839   1.000
    C168    C    0.02573   0.24415   0.96640   1.000
    C169    C    0.84333   0.36438   0.99073   1.000
    C170    C    0.22292   0.00000   0.15107   1.000
    C171    C    0.21945   0.96210   0.21401   1.000
    C172    C    0.26854   0.88984   0.12577   1.000
    C173    C    0.25593   0.82582   0.24535   1.000
    C174    C    0.24924   0.75079   0.21840   1.000
    C175    C    0.25839   0.68913   0.26552   1.000
    C176    C    0.27305   0.70125   0.33927   1.000
    C177    C    0.27716   0.77671   0.36557   1.000
    C178    C    0.26950   0.83900   0.31894   1.000
    C179    C    0.28203   0.63427   0.38900   1.000
    C180    C    0.59260   0.50364   0.09380   1.000
    C181    C    0.52794   0.45764   0.09735   1.000
    C182    C    0.61510   0.40499   0.02401   1.000
    C183    C    0.49354   0.32982   0.04147   1.000
    C184    C    0.41318   0.34052   0.03759   1.000
    C185    C    0.36499   0.27706   0.02763   1.000
    C186    C    0.39639   0.20328   0.02019   1.000
    C187    C    0.47717   0.19370   0.02246   1.000
    C188    C    0.52596   0.25650   0.03409   1.000
    C189    C    0.34332   0.13556   0.01039   1.000
    C190    C    0.72399   0.49678   0.84946   1.000
    C191    C    0.72010   0.53815   0.78652   1.000
    C192    C    0.76940   0.61082   0.87457   1.000
    C193    C    0.75615   0.67458   0.75481   1.000
    C194    C    0.74919   0.74970   0.78100   1.000
    C195    C    0.75779   0.81121   0.73394   1.000
    C196    C    0.77234   0.79888   0.66020   1.000
    C197    C    0.77691   0.72331   0.63432   1.000
    C198    C    0.76962   0.66119   0.68125   1.000
    C199    C    0.78086   0.86561   0.60952   1.000
    C200    C    0.90831   0.00289   0.09338   1.000
    C201    C    0.97276   0.95695   0.09711   1.000
    C202    C    0.88551   0.90416   0.02363   1.000
    C203    C    0.00680   0.82924   0.04115   1.000
    C204    C    0.08717   0.84021   0.03730   1.000
    C205    C    0.13525   0.77695   0.02700   1.000
    C206    C    0.10371   0.70311   0.01928   1.000
    C207    C    0.02292   0.69326   0.02150   1.000
    C208    C    0.97428   0.75583   0.03356   1.000
    C209    C    0.15668   0.63561   0.00920   1.000
    C210    C    0.77708   0.99645   0.84890   1.000
    C211    C    0.78055   0.03788   0.78595   1.000
    C212    C    0.73147   0.11014   0.87420   1.000
    C213    C    0.74410   0.17416   0.75461   1.000
    C214    C    0.75082   0.24919   0.78156   1.000
    C215    C    0.74167   0.31085   0.73444   1.000
    C216    C    0.72700   0.29874   0.66069   1.000
    C217    C    0.72285   0.22328   0.63440   1.000
    C218    C    0.73051   0.16098   0.68103   1.000
    C219    C    0.71800   0.36572   0.61047   1.000
    C220    C    0.40740   0.49635   0.90617   1.000
    C221    C    0.47206   0.54235   0.90262   1.000
    C222    C    0.38490   0.59500   0.97595   1.000
    C223    C    0.50646   0.67017   0.95849   1.000
    C224    C    0.58682   0.65946   0.96238   1.000
    C225    C    0.63501   0.72292   0.97234   1.000
    C226    C    0.60361   0.79671   0.97978   1.000
    C227    C    0.52284   0.80629   0.97751   1.000
    C228    C    0.47404   0.74350   0.96588   1.000
    C229    C    0.65668   0.86442   0.98958   1.000
    C230    C    0.27605   0.50319   0.15050   1.000
    C231    C    0.27994   0.46181   0.21344   1.000
    C232    C    0.23061   0.38917   0.12500   1.000
    C233    C    0.24386   0.32540   0.24515   1.000
    C234    C    0.25081   0.25028   0.21857   1.000
    C235    C    0.24219   0.18876   0.26602   1.000
    C236    C    0.22766   0.20110   0.33975   1.000
    C237    C    0.22309   0.27668   0.36564   1.000
    C238    C    0.23040   0.33879   0.31870   1.000
    C239    C    0.21914   0.13438   0.39045   1.000
    C240    C    0.40825   0.00273   0.40632   1.000
    C241    C    0.47272   0.95680   0.40270   1.000
    C242    C    0.38548   0.90423   0.47621   1.000
    C243    C    0.50681   0.82928   0.45890   1.000
    C244    C    0.58718   0.84027   0.46280   1.000
    C245    C    0.63526   0.77703   0.47307   1.000
    C246    C    0.60372   0.70321   0.48087   1.000
    C247    C    0.52293   0.69335   0.47858   1.000
    C248    C    0.47426   0.75589   0.46652   1.000
    C249    C    0.65667   0.63570   0.49086   1.000
    C250    C    0.27650   0.99610   0.65000   1.000
    C251    C    0.28008   0.03751   0.71370   1.000
    C252    C    0.23126   0.10994   0.62550   1.000
    C253    C    0.24395   0.17390   0.74521   1.000
    C254    C    0.25064   0.24892   0.71832   1.000
    C255    C    0.24151   0.31062   0.76546   1.000
    C256    C    0.22691   0.29857   0.83921   1.000
    C257    C    0.22283   0.22313   0.86547   1.000
    C258    C    0.23045   0.16080   0.81880   1.000
    C259    C    0.21796   0.36563   0.88945   1.000
    C260    C    0.90743   0.49661   0.59389   1.000
    C261    C    0.97210   0.54262   0.59740   1.000
    C262    C    0.88487   0.59513   0.52407   1.000
    C263    C    0.00645   0.67028   0.54140   1.000
    C264    C    0.08679   0.65951   0.53746   1.000
    C265    C    0.13500   0.72288   0.52724   1.000
    C266    C    0.10360   0.79663   0.51955   1.000
    C267    C    0.02285   0.80630   0.52199   1.000
    C268    C    0.97408   0.74361   0.53397   1.000
    C269    C    0.15669   0.86422   0.50935   1.000
    C270    C    0.77574   0.50341   0.34967   1.000
    C271    C    0.77969   0.46203   0.28660   1.000
    C272    C    0.73060   0.38928   0.37465   1.000
    C273    C    0.74389   0.32552   0.25484   1.000
    C274    C    0.75080   0.25042   0.28140   1.000
    C275    C    0.74221   0.18886   0.23392   1.000
    C276    C    0.72768   0.20113   0.16018   1.000
    C277    C    0.72317   0.27668   0.13431   1.000
    C278    C    0.73043   0.33884   0.18120   1.000
    C279    C    0.71919   0.13436   0.10944   1.000
    C280    C    0.64563   0.03049   0.54749   1.000
    C281    C    0.54249   0.10605   0.55290   1.000
    C282    C    0.75403   0.95825   0.40365   1.000
    C283    C    0.74858   0.88976   0.30289   1.000
    C284    C    0.14646   0.47019   0.45209   1.000
    C285    C    0.04302   0.39451   0.44680   1.000
    C286    C    0.25492   0.54241   0.59605   1.000
    C287    C    0.24891   0.61087   0.69682   1.000
    C288    C    0.14560   0.03046   0.95273   1.000
    C289    C    0.04249   0.10604   0.94713   1.000
    C290    C    0.25358   0.95798   0.09667   1.000
    C291    C    0.24834   0.88948   0.19732   1.000
    C292    C    0.64644   0.47036   0.04775   1.000
    C293    C    0.54300   0.39469   0.05306   1.000
    C294    C    0.75479   0.54255   0.90376   1.000
    C295    C    0.74886   0.61101   0.80306   1.000
    C296    C    0.85441   0.96952   0.04724   1.000
    C297    C    0.95752   0.89394   0.05284   1.000
    C298    C    0.74642   0.04200   0.90330   1.000
    C299    C    0.75168   0.11050   0.80264   1.000
    C300    C    0.35356   0.52963   0.95222   1.000
    C301    C    0.45700   0.60530   0.94690   1.000
    C302    C    0.24522   0.45743   0.09621   1.000
    C303    C    0.25116   0.38897   0.19690   1.000
    C304    C    0.35437   0.96950   0.45248   1.000
    C305    C    0.45750   0.89393   0.44707   1.000
    C306    C    0.24600   0.04175   0.59633   1.000
    C307    C    0.25144   0.11023   0.69700   1.000
    C308    C    0.85356   0.52980   0.54783   1.000
    C309    C    0.95700   0.60548   0.55311   1.000
    C310    C    0.74507   0.45758   0.40391   1.000
    C311    C    0.75109   0.38912   0.30315   1.000
    C312    C    0.37298   0.42390   0.47820   1.000
    C313    C    0.27382   0.35996   0.53089   1.000
    C314    C    0.79662   0.64656   0.04391   1.000
    C315    C    0.77281   0.56666   0.13655   1.000
    C316    C    0.87283   0.07627   0.52161   1.000
    C317    C    0.77375   0.13999   0.46903   1.000
    C318    C    0.29679   0.85323   0.95674   1.000
    C319    C    0.26997   0.93341   0.86521   1.000
    C320    C    0.87298   0.42403   0.02168   1.000
    C321    C    0.77379   0.35998   0.96000   1.000
    C322    C    0.29662   0.64654   0.45611   1.000
    C323    C    0.27277   0.56653   0.36344   1.000
    C324    C    0.37311   0.07549   0.98063   1.000
    C325    C    0.27347   0.14018   0.03110   1.000
    C326    C    0.79682   0.85321   0.54331   1.000
    C327    C    0.76995   0.93339   0.63490   1.000
    C328    C    0.12703   0.57596   0.97829   1.000
    C329    C    0.22622   0.64001   0.03098   1.000
    C330    C    0.70339   0.35345   0.54386   1.000
    C331    C    0.72726   0.43346   0.63652   1.000
    C332    C    0.62690   0.92450   0.01935   1.000
    C333    C    0.72654   0.85981   0.96887   1.000
    C334    C    0.20319   0.14678   0.45666   1.000
    C335    C    0.23006   0.06660   0.36507   1.000
    C336    C    0.62703   0.57610   0.52177   1.000
    C337    C    0.72618   0.64003   0.46907   1.000
    C338    C    0.20339   0.35344   0.95606   1.000
    C339    C    0.22720   0.43333   0.86342   1.000
    C340    C    0.12719   0.92374   0.47840   1.000
    C341    C    0.22628   0.86000   0.53097   1.000
    C342    C    0.70323   0.14675   0.04323   1.000
    C343    C    0.73004   0.06658   0.13476   1.000
    O344    O    0.13020   0.66936   0.01424   1.000
    O345    O    0.19145   0.63781   0.02009   1.000
    O346    O    0.14186   0.60578   0.99374   1.000
    O347    O    0.36986   0.16942   0.01529   1.000
    O348    O    0.30839   0.13787   0.02074   1.000
    O349    O    0.35822   0.10553   0.99551   1.000
    O350    O    0.37097   0.61493   0.99432   1.000
    O351    O    0.12847   0.11579   0.99472   1.000
    O352    O    0.01075   0.66454   0.01834   1.000
    O353    O    0.48930   0.16500   0.01936   1.000
    O354    O    0.06332   0.69819   0.02039   1.000
    O355    O    0.11948   0.74003   0.02314   1.000
    O356    O    0.67709   0.96539   0.02034   1.000
    O357    O    0.64179   0.89446   0.00446   1.000
    O358    O    0.43678   0.19849   0.02133   1.000
    O359    O    0.38069   0.24017   0.02391   1.000
    O360    O    0.71525   0.07652   0.03228   1.000
    O361    O    0.79084   0.98790   0.03429   1.000
    O362    O    0.72866   0.03643   0.07805   1.000
    O363    O    0.73685   0.02414   0.96232   1.000
    O364    O    0.99860   0.72455   0.02753   1.000
    O365    O    0.82343   0.46542   0.02185   1.000
    O366    O    0.85815   0.39421   0.00620   1.000
    O367    O    0.78525   0.57669   0.03297   1.000
    O368    O    0.71016   0.48859   0.03489   1.000
    O369    O    0.77335   0.53674   0.07929   1.000
    O370    O    0.76434   0.52469   0.96289   1.000
    O371    O    0.16651   0.78091   0.02471   1.000
    O372    O    0.50156   0.22510   0.02827   1.000
    O373    O    0.33373   0.28091   0.02526   1.000
    O374    O    0.86996   0.93684   0.03543   1.000
    O375    O    0.92151   0.89905   0.03823   1.000
    O376    O    0.87154   0.88420   0.00524   1.000
    O377    O    0.63077   0.43768   0.03588   1.000
    O378    O    0.57905   0.39984   0.03853   1.000
    O379    O    0.62903   0.38506   0.00564   1.000
    O380    O    0.11121   0.80858   0.03215   1.000
    O381    O    0.38908   0.30879   0.03261   1.000
    O382    O    0.94306   0.75124   0.03589   1.000
    O383    O    0.99054   0.79254   0.03735   1.000
    O384    O    0.55718   0.25201   0.03638   1.000
    O385    O    0.50975   0.29316   0.03778   1.000
    O386    O    0.04699   0.83472   0.03922   1.000
    O387    O    0.09946   0.86900   0.03923   1.000
    O388    O    0.40093   0.36928   0.03942   1.000
    O389    O    0.45336   0.33517   0.03953   1.000
    O390    O    0.98216   0.86159   0.04699   1.000
    O391    O    0.51827   0.36226   0.04727   1.000
    O392    O    0.71121   0.14056   0.07633   1.000
    O393    O    0.78933   0.64046   0.07721   1.000
    O394    O    0.88136   0.98620   0.07031   1.000
    O395    O    0.61952   0.48700   0.07077   1.000
    O396    O    0.96514   0.92544   0.07497   1.000
    O397    O    0.53547   0.42617   0.07520   1.000
    O398    O    0.71903   0.28160   0.10550   1.000
    O399    O    0.78131   0.78168   0.10569   1.000
    O400    O    0.94053   0.97992   0.09524   1.000
    O401    O    0.90227   0.02968   0.10722   1.000
    O402    O    0.56027   0.48064   0.09557   1.000
    O403    O    0.59868   0.53044   0.10766   1.000
    O404    O    0.23792   0.42330   0.11060   1.000
    O405    O    0.26063   0.48031   0.12335   1.000
    O406    O    0.23567   0.47530   0.03707   1.000
    O407    O    0.26106   0.92391   0.11122   1.000
    O408    O    0.23825   0.97899   0.12387   1.000
    O409    O    0.26316   0.97584   0.03765   1.000
    O410    O    0.99947   0.95929   0.11242   1.000
    O411    O    0.50121   0.45993   0.11261   1.000
    O412    O    0.21773   0.36491   0.11125   1.000
    O413    O    0.28145   0.86571   0.11177   1.000
    O414    O    0.72462   0.10047   0.12210   1.000
    O415    O    0.72344   0.16774   0.13481   1.000
    O416    O    0.77743   0.60052   0.12353   1.000
    O417    O    0.77757   0.66790   0.13561   1.000
    O418    O    0.24088   0.38907   0.16095   1.000
    O419    O    0.25844   0.88966   0.16154   1.000
    O420    O    0.72543   0.23890   0.14724   1.000
    O421    O    0.72680   0.30776   0.15776   1.000
    O422    O    0.77514   0.73914   0.14760   1.000
    O423    O    0.77336   0.80803   0.15785   1.000
    O424    O    0.28391   0.53284   0.14526   1.000
    O425    O    0.21496   0.03136   0.14586   1.000
    O426    O    0.27799   0.48250   0.18197   1.000
    O427    O    0.22119   0.98105   0.18254   1.000
    O428    O    0.73495   0.19499   0.19705   1.000
    O429    O    0.77224   0.86841   0.17094   1.000
    O430    O    0.76580   0.69540   0.19761   1.000
    O431    O    0.72766   0.36808   0.17110   1.000
    O432    O    0.24237   0.74554   0.19002   1.000
    O433    O    0.25759   0.24494   0.19018   1.000
    O434    O    0.76280   0.83264   0.21798   1.000
    O435    O    0.73716   0.33218   0.21802   1.000
    O436    O    0.26555   0.42539   0.20517   1.000
    O437    O    0.24751   0.35718   0.22102   1.000
    O438    O    0.23389   0.92579   0.20566   1.000
    O439    O    0.25213   0.85765   0.22134   1.000
    O440    O    0.28939   0.46987   0.24038   1.000
    O441    O    0.21014   0.97005   0.24099   1.000
    O442    O    0.25259   0.78831   0.23187   1.000
    O443    O    0.25382   0.71996   0.24196   1.000
    O444    O    0.24733   0.28784   0.23186   1.000
    O445    O    0.24650   0.21952   0.24229   1.000
    O446    O    0.71066   0.97048   0.25930   1.000
    O447    O    0.78910   0.47011   0.25970   1.000
    O448    O    0.74530   0.15950   0.24357   1.000
    O449    O    0.74650   0.21964   0.25766   1.000
    O450    O    0.75557   0.66002   0.24428   1.000
    O451    O    0.75393   0.72022   0.25809   1.000
    O452    O    0.23713   0.33210   0.28193   1.000
    O453    O    0.26271   0.83241   0.28215   1.000
    O454    O    0.25545   0.65977   0.25574   1.000
    O455    O    0.24530   0.15939   0.25636   1.000
    O456    O    0.75271   0.78858   0.26822   1.000
    O457    O    0.75232   0.85793   0.27883   1.000
    O458    O    0.74734   0.28797   0.26812   1.000
    O459    O    0.74749   0.35732   0.27899   1.000
    O460    O    0.26572   0.69519   0.30239   1.000
    O461    O    0.23492   0.19493   0.30288   1.000
    O462    O    0.75759   0.24511   0.30977   1.000
    O463    O    0.74250   0.74584   0.31003   1.000
    O464    O    0.73426   0.92612   0.29458   1.000
    O465    O    0.72173   0.98124   0.31778   1.000
    O466    O    0.76539   0.42558   0.29487   1.000
    O467    O    0.77771   0.48272   0.31813   1.000
    O468    O    0.75867   0.88991   0.33868   1.000
    O469    O    0.74084   0.38920   0.33890   1.000
    O470    O    0.22761   0.36804   0.32884   1.000
    O471    O    0.22674   0.30774   0.34217   1.000
    O472    O    0.27219   0.86822   0.32919   1.000
    O473    O    0.27333   0.80785   0.34225   1.000
    O474    O    0.27511   0.73898   0.35242   1.000
    O475    O    0.27754   0.66776   0.36413   1.000
    O476    O    0.22538   0.23889   0.35269   1.000
    O477    O    0.22340   0.16774   0.36510   1.000
    O478    O    0.71568   0.03157   0.35453   1.000
    O479    O    0.73878   0.97912   0.37647   1.000
    O480    O    0.78352   0.53308   0.35495   1.000
    O481    O    0.76040   0.48050   0.37679   1.000
    O482    O    0.27740   0.60040   0.37622   1.000
    O483    O    0.27334   0.53661   0.42061   1.000
    O484    O    0.22460   0.10049   0.37776   1.000
    O485    O    0.22861   0.03636   0.42162   1.000
    O486    O    0.28133   0.78154   0.39439   1.000
    O487    O    0.21894   0.28162   0.39444   1.000
    O488    O    0.00118   0.45963   0.38726   1.000
    O489    O    0.49944   0.95909   0.38741   1.000
    O490    O    0.78158   0.86588   0.38845   1.000
    O491    O    0.76140   0.92415   0.38906   1.000
    O492    O    0.71778   0.36501   0.38857   1.000
    O493    O    0.73783   0.42343   0.38928   1.000
    O494    O    0.09865   0.53015   0.39216   1.000
    O495    O    0.40220   0.02948   0.39243   1.000
    O496    O    0.28932   0.64041   0.42255   1.000
    O497    O    0.21116   0.14058   0.42355   1.000
    O498    O    0.06025   0.48037   0.40427   1.000
    O499    O    0.03547   0.42594   0.42465   1.000
    O500    O    0.44048   0.97976   0.40451   1.000
    O501    O    0.46511   0.92537   0.42488   1.000
    O502    O    0.76344   0.97606   0.46272   1.000
    O503    O    0.73558   0.47544   0.46300   1.000
    O504    O    0.11952   0.48679   0.42906   1.000
    O505    O    0.38131   0.98611   0.42940   1.000
    O506    O    0.01830   0.36211   0.45268   1.000
    O507    O    0.07909   0.39969   0.46133   1.000
    O508    O    0.48215   0.86161   0.45298   1.000
    O509    O    0.42149   0.89908   0.46164   1.000
    O510    O    0.13081   0.43753   0.46398   1.000
    O511    O    0.21019   0.48844   0.46494   1.000
    O512    O    0.36992   0.93686   0.46434   1.000
    O513    O    0.29077   0.98781   0.46533   1.000
    O514    O    0.28527   0.57662   0.46695   1.000
    O515    O    0.21518   0.07645   0.46742   1.000
    O516    O    0.95340   0.33510   0.46054   1.000
    O517    O    0.00976   0.29305   0.46230   1.000
    O518    O    0.90099   0.36925   0.46061   1.000
    O519    O    0.54699   0.83477   0.46085   1.000
    O520    O    0.49053   0.79259   0.46271   1.000
    O521    O    0.59946   0.86906   0.46087   1.000
    O522    O    0.05714   0.25187   0.46366   1.000
    O523    O    0.44304   0.75129   0.46416   1.000
    O524    O    0.88913   0.30881   0.46765   1.000
    O525    O    0.61122   0.80865   0.46793   1.000
    O526    O    0.00155   0.22505   0.47204   1.000
    O527    O    0.49860   0.72462   0.47255   1.000
    O528    O    0.80854   0.13789   0.47986   1.000
    O529    O    0.69143   0.63786   0.47996   1.000
    O530    O    0.83378   0.28100   0.47515   1.000
    O531    O    0.88072   0.24025   0.47663   1.000
    O532    O    0.66652   0.78100   0.47542   1.000
    O533    O    0.61949   0.74012   0.47697   1.000
    O534    O    0.12908   0.38498   0.49424   1.000
    O535    O    0.37152   0.88432   0.49460   1.000
    O536    O    0.32345   0.46529   0.47799   1.000
    O537    O    0.26442   0.52455   0.53692   1.000
    O538    O    0.93679   0.19854   0.47926   1.000
    O539    O    0.98928   0.16501   0.48119   1.000
    O540    O    0.17718   0.96493   0.47829   1.000
    O541    O    0.23658   0.02394   0.53725   1.000
    O542    O    0.35816   0.39410   0.49366   1.000
    O543    O    0.14194   0.89398   0.49387   1.000
    O544    O    0.56333   0.69828   0.47972   1.000
    O545    O    0.51075   0.66464   0.48179   1.000
    O546    O    0.86987   0.16958   0.48558   1.000
    O547    O    0.63020   0.66945   0.48586   1.000
    O548    O    0.62847   0.11567   0.50535   1.000
    O549    O    0.87094   0.61502   0.50570   1.000
    O550    O    0.85808   0.10603   0.50614   1.000
    O551    O    0.64185   0.60590   0.50631   1.000
    O552    O    0.36981   0.33054   0.51411   1.000
    O553    O    0.30858   0.36213   0.52000   1.000
    O554    O    0.13015   0.83043   0.51445   1.000
    O555    O    0.19149   0.86211   0.52016   1.000
    O556    O    0.48925   0.33536   0.51799   1.000
    O557    O    0.01074   0.83499   0.51886   1.000
    O558    O    0.43667   0.30171   0.52005   1.000
    O559    O    0.38051   0.25987   0.52299   1.000
    O560    O    0.06323   0.80147   0.52077   1.000
    O561    O    0.11930   0.75976   0.52339   1.000
    O562    O    0.50140   0.27537   0.52722   1.000
    O563    O    0.82284   0.03507   0.52170   1.000
    O564    O    0.67656   0.53470   0.52193   1.000
    O565    O    0.78483   0.92354   0.53256   1.000
    O566    O    0.70924   0.01218   0.53465   1.000
    O567    O    0.77140   0.96363   0.57835   1.000
    O568    O    0.99847   0.77495   0.52798   1.000
    O569    O    0.71474   0.42338   0.53298   1.000
    O570    O    0.78982   0.51155   0.53497   1.000
    O571    O    0.72668   0.46338   0.57931   1.000
    O572    O    0.33348   0.21899   0.52453   1.000
    O573    O    0.16625   0.71901   0.52482   1.000
    O574    O    0.63007   0.06313   0.53562   1.000
    O575    O    0.57850   0.10091   0.53833   1.000
    O576    O    0.86922   0.56246   0.53595   1.000
    O577    O    0.92094   0.60030   0.53859   1.000
    O578    O    0.38878   0.19134   0.53202   1.000
    O579    O    0.11089   0.69119   0.53235   1.000
    O580    O    0.55696   0.24870   0.53579   1.000
    O581    O    0.50946   0.20740   0.53726   1.000
    O582    O    0.94288   0.74813   0.53633   1.000
    O583    O    0.99027   0.70694   0.53768   1.000
    O584    O    0.40053   0.13093   0.53909   1.000
    O585    O    0.45300   0.16522   0.53912   1.000
    O586    O    0.09903   0.63075   0.53934   1.000
    O587    O    0.04662   0.66489   0.53943   1.000
    O588    O    0.51784   0.13838   0.54698   1.000
    O589    O    0.98172   0.63788   0.54725   1.000
    O590    O    0.78884   0.85941   0.57641   1.000
    O591    O    0.71070   0.35958   0.57716   1.000
    O592    O    0.61869   0.01387   0.57054   1.000
    O593    O    0.88049   0.51321   0.57086   1.000
    O594    O    0.53488   0.07462   0.57508   1.000
    O595    O    0.96455   0.57405   0.57525   1.000
    O596    O    0.78107   0.71836   0.60552   1.000
    O597    O    0.71867   0.21845   0.60558   1.000
    O598    O    0.55951   0.02022   0.59543   1.000
    O599    O    0.59779   0.97051   0.60751   1.000
    O600    O    0.93976   0.51961   0.59564   1.000
    O601    O    0.90136   0.46984   0.60776   1.000
    O602    O    0.26216   0.57656   0.61068   1.000
    O603    O    0.23959   0.51949   0.62317   1.000
    O604    O    0.23863   0.07585   0.61091   1.000
    O605    O    0.26125   0.01893   0.62316   1.000
    O606    O    0.50056   0.04090   0.61255   1.000
    O607    O    0.28221   0.63498   0.61135   1.000
    O608    O    0.99883   0.54035   0.61266   1.000
    O609    O    0.21845   0.13412   0.61152   1.000
    O610    O    0.77540   0.89950   0.62221   1.000
    O611    O    0.77660   0.83224   0.63486   1.000
    O612    O    0.72263   0.39959   0.62349   1.000
    O613    O    0.72250   0.33223   0.63558   1.000
    O614    O    0.25915   0.61079   0.66107   1.000
    O615    O    0.24135   0.11009   0.66125   1.000
    O616    O    0.77463   0.76110   0.64726   1.000
    O617    O    0.77327   0.69225   0.65778   1.000
    O618    O    0.72492   0.26101   0.64754   1.000
    O619    O    0.72668   0.19213   0.65771   1.000
    O620    O    0.21647   0.46690   0.64501   1.000
    O621    O    0.28435   0.96648   0.64510   1.000
    O622    O    0.27829   0.01681   0.68185   1.000
    O623    O    0.22228   0.51726   0.68178   1.000
    O624    O    0.76507   0.80505   0.69707   1.000
    O625    O    0.72781   0.13176   0.67077   1.000
    O626    O    0.73434   0.30479   0.69756   1.000
    O627    O    0.77242   0.63194   0.67111   1.000
    O628    O    0.25750   0.25415   0.68995   1.000
    O629    O    0.24242   0.75488   0.69019   1.000
    O630    O    0.73730   0.16757   0.71782   1.000
    O631    O    0.76289   0.66788   0.71803   1.000
    O632    O    0.23461   0.57441   0.70505   1.000
    O633    O    0.25251   0.64267   0.72097   1.000
    O634    O    0.26576   0.07387   0.70535   1.000
    O635    O    0.24769   0.14207   0.72110   1.000
    O636    O    0.21090   0.52988   0.74021   1.000
    O637    O    0.28936   0.02951   0.74068   1.000
    O638    O    0.24730   0.21141   0.73176   1.000
    O639    O    0.24607   0.27977   0.74189   1.000
    O640    O    0.25266   0.71202   0.73184   1.000
    O641    O    0.25350   0.78035   0.74230   1.000
    O642    O    0.78986   0.02992   0.75892   1.000
    O643    O    0.71066   0.53010   0.75958   1.000
    O644    O    0.75468   0.84059   0.74360   1.000
    O645    O    0.75349   0.78046   0.75747   1.000
    O646    O    0.74463   0.34021   0.74422   1.000
    O647    O    0.74625   0.28002   0.75800   1.000
    O648    O    0.26284   0.66780   0.78191   1.000
    O649    O    0.23720   0.16735   0.78200   1.000
    O650    O    0.24443   0.33997   0.75569   1.000
    O651    O    0.25470   0.84049   0.75639   1.000
    O652    O    0.74746   0.21167   0.76808   1.000
    O653    O    0.74789   0.14233   0.77862   1.000
    O654    O    0.75267   0.71214   0.76790   1.000
    O655    O    0.75251   0.64279   0.77893   1.000
    O656    O    0.23421   0.30460   0.80233   1.000
    O657    O    0.26506   0.80499   0.80291   1.000
    O658    O    0.74240   0.75503   0.80957   1.000
    O659    O    0.75770   0.25443   0.80993   1.000
    O660    O    0.76612   0.07419   0.79429   1.000
    O661    O    0.77882   0.01716   0.81742   1.000
    O662    O    0.73448   0.57458   0.79479   1.000
    O663    O    0.72204   0.51747   0.81799   1.000
    O664    O    0.74157   0.11032   0.83842   1.000
    O665    O    0.75913   0.61091   0.83881   1.000
    O666    O    0.27234   0.63190   0.82882   1.000
    O667    O    0.27320   0.69223   0.84217   1.000
    O668    O    0.22776   0.13158   0.82904   1.000
    O669    O    0.22664   0.19196   0.84213   1.000
    O670    O    0.22487   0.26085   0.85234   1.000
    O671    O    0.22243   0.33210   0.86433   1.000
    O672    O    0.27458   0.76109   0.85272   1.000
    O673    O    0.27657   0.83224   0.86515   1.000
    O674    O    0.78504   0.96686   0.85411   1.000
    O675    O    0.76175   0.01923   0.87610   1.000
    O676    O    0.71613   0.46713   0.85470   1.000
    O677    O    0.73939   0.51967   0.87661   1.000
    O678    O    0.22258   0.39948   0.87643   1.000
    O679    O    0.22666   0.46325   0.92068   1.000
    O680    O    0.27539   0.89952   0.87787   1.000
    O681    O    0.27135   0.96356   0.92192   1.000
    O682    O    0.21869   0.21832   0.89429   1.000
    O683    O    0.28097   0.71839   0.89446   1.000
    O684    O    0.49879   0.54006   0.88736   1.000
    O685    O    0.00054   0.04070   0.88755   1.000
    O686    O    0.71856   0.13428   0.88819   1.000
    O687    O    0.73895   0.07607   0.88875   1.000
    O688    O    0.78227   0.63507   0.88851   1.000
    O689    O    0.76209   0.57669   0.88916   1.000
    O690    O    0.40132   0.46955   0.89228   1.000
    O691    O    0.09774   0.97030   0.89246   1.000
    O692    O    0.21068   0.35953   0.92275   1.000
    O693    O    0.28880   0.85943   0.92363   1.000
    O694    O    0.43973   0.51935   0.90439   1.000
    O695    O    0.46453   0.57382   0.92476   1.000
    O696    O    0.05947   0.02007   0.90443   1.000
    O697    O    0.03487   0.07454   0.92499   1.000
    O698    O    0.11865   0.01378   0.92936   1.000
    O699    O    0.38048   0.51299   0.92919   1.000
    O700    O    0.48173   0.63773   0.95269   1.000
    O701    O    0.42095   0.60015   0.96142   1.000
    O702    O    0.01785   0.13840   0.95297   1.000
    O703    O    0.07849   0.10093   0.96173   1.000
    O704    O    0.36923   0.56231   0.96408   1.000
    O705    O    0.28984   0.51140   0.96508   1.000
    O706    O    0.13005   0.06314   0.96453   1.000
    O707    O    0.20917   0.01208   0.96568   1.000
    O708    O    0.21476   0.42331   0.96700   1.000
    O709    O    0.28476   0.92347   0.96769   1.000
    O710    O    0.54664   0.66482   0.96043   1.000
    O711    O    0.49025   0.70683   0.96218   1.000
    O712    O    0.59907   0.63071   0.96054   1.000
    O713    O    0.90055   0.13099   0.96075   1.000
    O714    O    0.95302   0.16526   0.96075   1.000
    O715    O    0.00947   0.20745   0.96261   1.000
    O716    O    0.80856   0.36218   0.97536   1.000
    O717    O    0.44283   0.74798   0.96359   1.000
    O718    O    0.05695   0.24875   0.96407   1.000
    O719    O    0.61092   0.69119   0.96736   1.000
    O720    O    0.88880   0.19141   0.96778   1.000
    O721    O    0.49844   0.77489   0.97169   1.000
    O722    O    0.00141   0.27544   0.97240   1.000
    O723    O    0.69161   0.86212   0.97922   1.000
    O724    O    0.66627   0.71907   0.97471   1.000
    O725    O    0.61931   0.75982   0.97606   1.000
    O726    O    0.83350   0.21908   0.97522   1.000
    O727    O    0.88053   0.25996   0.97679   1.000
    O728    O    0.56322   0.80150   0.97864   1.000
    O729    O    0.51070   0.83499   0.98060   1.000
    O730    O    0.17658   0.53457   0.97811   1.000
    O731    O    0.93669   0.30180   0.97954   1.000
    O732    O    0.98926   0.33545   0.98158   1.000
    O733    O    0.32292   0.03459   0.97963   1.000
    O734    O    0.63015   0.83057   0.98468   1.000
    O735    O    0.86981   0.33063   0.98571   1.000
loop_
    _geom_bond_atom_site_label_1
    _geom_bond_atom_site_label_2
    _geom_bond_distance
    _geom_bond_site_symmetry_2
    _ccdc_geom_bond_type
    C209   O344      0.75000      .   S
    C206   O344      0.75000      .   S
    C209   O345      0.63250      .   S
    C329   O345      0.63250      .   S
    C209   O346      0.64418  1_554   S
    C328   O346      0.64418      .   S
    C189   O347      0.74988      .   S
    C186   O347      0.74988      .   S
    C189   O348      0.63244      .   S
    C325   O348      0.63244      .   S
    C189   O349      0.64413  1_554   S
    C324   O349      0.64413      .   S
    C80    O350      0.54151  1_554   S
    C222   O350      0.54151      .   S
    C38    O351      0.54153  1_554   S
    C162   O351      0.54153      .   S
    C69    O352      0.54441  1_655   S
    C207   O352      0.54441      .   S
    C55    O353      0.54456      .   S
    C187   O353      0.54456      .   S
    C206   O354      0.70075      .   S
    C207   O354      0.70075      .   S
    C206   O355      0.70021      .   S
    C205   O355      0.70021      .   S
    C332   O356      1.11790      .   S
    C4     O356      1.11790  1_545   S
    C332   O357      0.64417      .   S
    C229   O357      0.64417  1_556   S
    C186   O358      0.70077      .   S
    C187   O358      0.70077      .   S
    C186   O359      0.70030      .   S
    C185   O359      0.70030      .   S
    C4     O360      1.25593      .   S
    C342   O360      1.25593      .   S
    C4     O361      1.16562  1_545   S
    C296   O361      1.16562      .   S
    C4     O362      1.17188      .   S
    C343   O362      1.17188      .   S
    C4     O363      1.14624  1_554   S
    C298   O363      1.14624      .   S
    C207   O364      0.69642  1_455   S
    C208   O364      0.69642      .   S
    C320   O365      1.11755      .   S
    C3     O365      1.11755      .   S
    C320   O366      0.64434      .   S
    C169   O366      0.64434  1_556   S
    C3     O367      1.24694      .   S
    C314   O367      1.24694      .   S
    C3     O368      1.16573      .   S
    C292   O368      1.16573      .   S
    C3     O369      1.17909      .   S
    C315   O369      1.17909      .   S
    C3     O370      1.14836  1_554   S
    C294   O370      1.14836      .   S
    C68    O371      0.54404      .   S
    C205   O371      0.54404      .   S
    C187   O372      0.69640      .   S
    C188   O372      0.69640      .   S
    C54    O373      0.54410      .   S
    C185   O373      0.54410      .   S
    C202   O374      0.66561      .   S
    C296   O374      0.66561      .   S
    C202   O375      0.68202      .   S
    C297   O375      0.68202      .   S
    C202   O376      0.54152      .   S
    C66    O376      0.54152  1_556   S
    C182   O377      0.66573      .   S
    C292   O377      0.66573      .   S
    C182   O378      0.68205      .   S
    C293   O378      0.68205      .   S
    C182   O379      0.54150      .   S
    C52    O379      0.54150  1_556   S
    C205   O380      0.69576      .   S
    C204   O380      0.69576      .   S
    C185   O381      0.69568      .   S
    C184   O381      0.69568      .   S
    C208   O382      0.54491      .   S
    C70    O382      0.54491      .   S
    C208   O383      0.69998      .   S
    C203   O383      0.69998  1_455   S
    C188   O384      0.54487      .   S
    C56    O384      0.54487      .   S
    C188   O385      0.70007      .   S
    C183   O385      0.70007      .   S
    C204   O386      0.69901      .   S
    C203   O386      0.69901      .   S
    C204   O387      0.54439      .   S
    C67    O387      0.54439      .   S
    C184   O388      0.54441      .   S
    C53    O388      0.54441      .   S
    C184   O389      0.69905      .   S
    C183   O389      0.69905      .   S
    C203   O390      0.71371  1_455   S
    C297   O390      0.71371      .   S
    C183   O391      0.71395      .   S
    C293   O391      0.71395      .   S
    C342   O392      0.63637      .   S
    C279   O392      0.63637      .   S
    C314   O393      0.63714      .   S
    C139   O393      0.63714      .   S
    C296   O394      0.69302      .   S
    C200   O394      0.69302  1_545   S
    C292   O395      0.69300      .   S
    C180   O395      0.69300      .   S
    C297   O396      0.69583      .   S
    C201   O396      0.69583      .   S
    C293   O397      0.69582      .   S
    C181   O397      0.69582      .   S
    C118   O398      0.54398      .   S
    C277   O398      0.54398      .   S
    C20    O399      0.54393      .   S
    C137   O399      0.54393      .   S
    C200   O400      0.68538  1_545   S
    C201   O400      0.68538      .   S
    C200   O401      0.54178      .   S
    C64    O401      0.54178      .   S
    C180   O402      0.68546      .   S
    C181   O402      0.68546      .   S
    C180   O403      0.54180      .   S
    C50    O403      0.54180      .   S
    C302   O404      0.66253      .   S
    C232   O404      0.66253      .   S
    C302   O405      0.69258      .   S
    C230   O405      0.69258      .   S
    C302   O406      1.14839      .   S
    C5     O406      1.14839  1_556   S
    C290   O407      0.66384      .   S
    C172   O407      0.66384      .   S
    C290   O408      0.67545      .   S
    C170   O408      0.67545  1_545   S
    C290   O409      1.14626      .   S
    C2     O409      1.14626  1_556   S
    C201   O410      0.54116      .   S
    C65    O410      0.54116  1_455   S
    C181   O411      0.54134      .   S
    C51    O411      0.54134      .   S
    C87    O412      0.53950      .   S
    C232   O412      0.53950      .   S
    C45    O413      0.54122      .   S
    C172   O413      0.54122      .   S
    C279   O414      0.64147      .   S
    C343   O414      0.64147      .   S
    C279   O415      0.74953      .   S
    C276   O415      0.74953      .   S
    C139   O416      0.64105      .   S
    C315   O416      0.64105      .   S
    C139   O417      0.74897      .   S
    C136   O417      0.74897      .   S
    C232   O418      0.68751      .   S
    C303   O418      0.68751      .   S
    C172   O419      0.68375      .   S
    C291   O419      0.68375      .   S
    C277   O420      0.70056      .   S
    C276   O420      0.70056      .   S
    C277   O421      0.69535      .   S
    C278   O421      0.69535      .   S
    C137   O422      0.70032      .   S
    C136   O422      0.70032      .   S
    C137   O423      0.69585      .   S
    C138   O423      0.69585      .   S
    C85    O424      0.54169      .   S
    C230   O424      0.54169      .   S
    C43    O425      0.57092      .   S
    C170   O425      0.57092      .   S
    C230   O426      0.68504      .   S
    C231   O426      0.68504      .   S
    C170   O427      0.66939  1_545   S
    C171   O427      0.66939      .   S
    C276   O428      0.70105      .   S
    C275   O428      0.70105      .   S
    C21    O429      0.54434      .   S
    C138   O429      0.54434      .   S
    C136   O430      0.70150      .   S
    C135   O430      0.70150      .   S
    C119   O431      0.54408      .   S
    C278   O431      0.54408      .   S
    C46    O432      0.54517      .   S
    C174   O432      0.54517      .   S
    C88    O433      0.54546      .   S
    C234   O433      0.54546      .   S
    C138   O434      0.69932      .   S
    C133   O434      0.69932      .   S
    C278   O435      0.70003      .   S
    C273   O435      0.70003      .   S
    C303   O436      0.69662      .   S
    C231   O436      0.69662      .   S
    C303   O437      0.71315      .   S
    C233   O437      0.71315      .   S
    C291   O438      0.69657      .   S
    C171   O438      0.69657      .   S
    C291   O439      0.71291      .   S
    C173   O439      0.71291      .   S
    C231   O440      0.54196      .   S
    C86    O440      0.54196      .   S
    C171   O441      0.54189      .   S
    C44    O441      0.54189      .   S
    C174   O442      0.70057      .   S
    C173   O442      0.70057      .   S
    C174   O443      0.69564      .   S
    C175   O443      0.69564      .   S
    C234   O444      0.70057      .   S
    C233   O444      0.70057      .   S
    C234   O445      0.69583      .   S
    C235   O445      0.69583      .   S
    C16    O446      0.54189      .   S
    C131   O446      0.54189      .   S
    C114   O447      0.54149      .   S
    C271   O447      0.54149      .   S
    C275   O448      0.54387      .   S
    C117   O448      0.54387      .   S
    C275   O449      0.69580      .   S
    C274   O449      0.69580      .   S
    C135   O450      0.54387      .   S
    C19    O450      0.54387      .   S
    C135   O451      0.69564      .   S
    C134   O451      0.69564      .   S
    C233   O452      0.69926      .   S
    C238   O452      0.69926      .   S
    C173   O453      0.69929      .   S
    C178   O453      0.69929      .   S
    C47    O454      0.54386      .   S
    C175   O454      0.54386      .   S
    C89    O455      0.54389      .   S
    C235   O455      0.54389      .   S
    C133   O456      0.70055      .   S
    C134   O456      0.70055      .   S
    C133   O457      0.71297      .   S
    C283   O457      0.71297      .   S
    C273   O458      0.70058      .   S
    C274   O458      0.70058      .   S
    C273   O459      0.71315      .   S
    C311   O459      0.71315      .   S
    C175   O460      0.70091      .   S
    C176   O460      0.70091      .   S
    C235   O461      0.70101      .   S
    C236   O461      0.70101      .   S
    C274   O462      0.54525      .   S
    C116   O462      0.54525      .   S
    C134   O463      0.54517      .   S
    C18    O463      0.54517      .   S
    C131   O464      0.69663      .   S
    C283   O464      0.69663      .   S
    C131   O465      0.66794      .   S
    C130   O465      0.66794  1_545   S
    C271   O466      0.69683      .   S
    C311   O466      0.69683      .   S
    C271   O467      0.68569      .   S
    C270   O467      0.68569      .   S
    C283   O468      0.68386      .   S
    C132   O468      0.68386      .   S
    C311   O469      0.68393      .   S
    C272   O469      0.68393      .   S
    C238   O470      0.54436      .   S
    C91    O470      0.54436      .   S
    C238   O471      0.69583      .   S
    C237   O471      0.69583      .   S
    C178   O472      0.54429      .   S
    C49    O472      0.54429      .   S
    C178   O473      0.69573      .   S
    C177   O473      0.69573      .   S
    C176   O474      0.70049      .   S
    C177   O474      0.70049      .   S
    C176   O475      0.74640      .   S
    C179   O475      0.74640      .   S
    C236   O476      0.70052      .   S
    C237   O476      0.70052      .   S
    C236   O477      0.74956      .   S
    C239   O477      0.74956      .   S
    C130   O478      0.57400      .   S
    C15    O478      0.57400      .   S
    C130   O479      0.67365  1_545   S
    C282   O479      0.67365      .   S
    C270   O480      0.54169      .   S
    C113   O480      0.54169      .   S
    C270   O481      0.69259      .   S
    C310   O481      0.69259      .   S
    C323   O482      0.63938      .   S
    C179   O482      0.63938      .   S
    C323   O483      1.17830      .   S
    C1     O483      1.17830      .   S
    C335   O484      0.64149      .   S
    C239   O484      0.64149      .   S
    C335   O485      1.17066      .   S
    C6     O485      1.17066      .   S
    C177   O486      0.54389      .   S
    C48    O486      0.54389      .   S
    C237   O487      0.54401      .   S
    C90    O487      0.54401      .   S
    C23    O488      0.54114  1_655   S
    C141   O488      0.54114      .   S
    C93    O489      0.54127      .   S
    C241   O489      0.54127      .   S
    C132   O490      0.54118      .   S
    C17    O490      0.54118      .   S
    C132   O491      0.66388      .   S
    C282   O491      0.66388      .   S
    C272   O492      0.54123      .   S
    C115   O492      0.54123      .   S
    C272   O493      0.66398      .   S
    C310   O493      0.66398      .   S
    C22    O494      0.54181      .   S
    C140   O494      0.54181      .   S
    C92    O495      0.54178      .   S
    C240   O495      0.54178      .   S
    C179   O496      0.64152      .   S
    C322   O496      0.64152      .   S
    C239   O497      0.63631      .   S
    C334   O497      0.63631      .   S
    C141   O498      0.68547      .   S
    C140   O498      0.68547      .   S
    C141   O499      0.69566      .   S
    C285   O499      0.69566      .   S
    C241   O500      0.68539      .   S
    C240   O500      0.68539  1_545   S
    C241   O501      0.69587      .   S
    C305   O501      0.69587      .   S
    C282   O502      1.14607      .   S
    C0     O502      1.14607      .   S
    C310   O503      1.14717      .   S
    C7     O503      1.14717      .   S
    C140   O504      0.69297      .   S
    C284   O504      0.69297      .   S
    C240   O505      0.69300  1_545   S
    C304   O505      0.69300      .   S
    C285   O506      0.71381      .   S
    C143   O506      0.71381  1_655   S
    C285   O507      0.68212      .   S
    C142   O507      0.68212      .   S
    C305   O508      0.71382      .   S
    C243   O508      0.71382      .   S
    C305   O509      0.68200      .   S
    C242   O509      0.68200      .   S
    C284   O510      0.66573      .   S
    C142   O510      0.66573      .   S
    C284   O511      1.16564      .   S
    C1     O511      1.16564      .   S
    C304   O512      0.66556      .   S
    C242   O512      0.66556      .   S
    C304   O513      1.16552      .   S
    C6     O513      1.16552  1_545   S
    C322   O514      1.24778      .   S
    C1     O514      1.24778      .   S
    C334   O515      1.25704      .   S
    C6     O515      1.25704      .   S
    C143   O516      0.69904      .   S
    C144   O516      0.69904      .   S
    C143   O517      0.69997  1_655   S
    C148   O517      0.69997      .   S
    C25    O518      0.54443      .   S
    C144   O518      0.54443      .   S
    C243   O519      0.69900      .   S
    C244   O519      0.69900      .   S
    C243   O520      0.70004      .   S
    C248   O520      0.70004      .   S
    C95    O521      0.54440      .   S
    C244   O521      0.54440      .   S
    C28    O522      0.54487      .   S
    C148   O522      0.54487      .   S
    C98    O523      0.54492      .   S
    C248   O523      0.54492      .   S
    C144   O524      0.69563      .   S
    C145   O524      0.69563      .   S
    C244   O525      0.69565      .   S
    C245   O525      0.69565      .   S
    C148   O526      0.69628      .   S
    C147   O526      0.69628  1_655   S
    C248   O527      0.69644      .   S
    C247   O527      0.69644      .   S
    C317   O528      0.63253      .   S
    C149   O528      0.63253      .   S
    C337   O529      0.63236      .   S
    C249   O529      0.63236      .   S
    C145   O530      0.54412      .   S
    C26    O530      0.54412      .   S
    C145   O531      0.70028      .   S
    C146   O531      0.70028      .   S
    C245   O532      0.54412      .   S
    C96    O532      0.54412      .   S
    C245   O533      0.70028      .   S
    C246   O533      0.70028      .   S
    C142   O534      0.54125      .   S
    C24    O534      0.54125      .   S
    C242   O535      0.54135      .   S
    C94    O535      0.54135      .   S
    C1     O536      1.11742      .   S
    C312   O536      1.11742      .   S
    C1     O537      1.14780      .   S
    C286   O537      1.14780      .   S
    C147   O538      0.70072      .   S
    C146   O538      0.70072      .   S
    C147   O539      0.54448      .   S
    C27    O539      0.54448  1_455   S
    C6     O540      1.11849  1_545   S
    C340   O540      1.11849      .   S
    C6     O541      1.14609      .   S
    C306   O541      1.14609      .   S
    C312   O542      0.64424      .   S
    C129   O542      0.64424      .   S
    C340   O543      0.64423      .   S
    C269   O543      0.64423      .   S
    C247   O544      0.70076      .   S
    C246   O544      0.70076      .   S
    C247   O545      0.54455      .   S
    C97    O545      0.54455      .   S
    C146   O546      0.74971      .   S
    C149   O546      0.74971      .   S
    C246   O547      0.74993      .   S
    C249   O547      0.74993      .   S
    C10    O548      0.54135      .   S
    C122   O548      0.54135      .   S
    C108   O549      0.54137      .   S
    C262   O549      0.54137      .   S
    C149   O550      0.64415      .   S
    C316   O550      0.64415      .   S
    C249   O551      0.64420      .   S
    C336   O551      0.64420      .   S
    C129   O552      0.74991      .   S
    C126   O552      0.74991      .   S
    C129   O553      0.63233      .   S
    C313   O553      0.63233      .   S
    C269   O554      0.74971      .   S
    C266   O554      0.74971      .   S
    C269   O555      0.63251      .   S
    C341   O555      0.63251      .   S
    C13    O556      0.54417      .   S
    C127   O556      0.54417      .   S
    C111   O557      0.54448  1_655   S
    C267   O557      0.54448      .   S
    C126   O558      0.70066      .   S
    C127   O558      0.70066      .   S
    C126   O559      0.70027      .   S
    C125   O559      0.70027      .   S
    C266   O560      0.70072      .   S
    C267   O560      0.70072      .   S
    C266   O561      0.70028      .   S
    C265   O561      0.70028      .   S
    C127   O562      0.69702      .   S
    C128   O562      0.69702      .   S
    C316   O563      1.11853      .   S
    C0     O563      1.11853  1_565   S
    C336   O564      1.11743      .   S
    C7     O564      1.11743      .   S
    C0     O565      1.25715      .   S
    C326   O565      1.25715      .   S
    C0     O566      1.16560  1_565   S
    C280   O566      1.16560      .   S
    C0     O567      1.17064      .   S
    C327   O567      1.17064      .   S
    C267   O568      0.69627  1_455   S
    C268   O568      0.69627      .   S
    C7     O569      1.24793      .   S
    C330   O569      1.24793      .   S
    C7     O570      1.16579      .   S
    C308   O570      1.16579      .   S
    C7     O571      1.17889      .   S
    C331   O571      1.17889      .   S
    C12    O572      0.54413      .   S
    C125   O572      0.54413      .   S
    C110   O573      0.54419      .   S
    C265   O573      0.54419      .   S
    C122   O574      0.66560      .   S
    C280   O574      0.66560      .   S
    C122   O575      0.68203      .   S
    C281   O575      0.68203      .   S
    C262   O576      0.66569      .   S
    C308   O576      0.66569      .   S
    C262   O577      0.68199      .   S
    C309   O577      0.68199      .   S
    C125   O578      0.69566      .   S
    C124   O578      0.69566      .   S
    C265   O579      0.69562      .   S
    C264   O579      0.69562      .   S
    C128   O580      0.54490      .   S
    C14    O580      0.54490      .   S
    C128   O581      0.70004      .   S
    C123   O581      0.70004      .   S
    C268   O582      0.54488      .   S
    C112   O582      0.54488      .   S
    C268   O583      0.69997      .   S
    C263   O583      0.69997  1_455   S
    C124   O584      0.54439      .   S
    C11    O584      0.54439      .   S
    C124   O585      0.69901      .   S
    C123   O585      0.69901      .   S
    C264   O586      0.54441      .   S
    C109   O586      0.54441      .   S
    C264   O587      0.69906      .   S
    C263   O587      0.69906      .   S
    C123   O588      0.71382      .   S
    C281   O588      0.71382      .   S
    C263   O589      0.71376  1_455   S
    C309   O589      0.71376      .   S
    C326   O590      0.63632      .   S
    C199   O590      0.63632      .   S
    C330   O591      0.63709      .   S
    C219   O591      0.63709      .   S
    C280   O592      0.69273      .   S
    C120   O592      0.69273  1_565   S
    C308   O593      0.69301      .   S
    C260   O593      0.69301      .   S
    C281   O594      0.69581      .   S
    C121   O594      0.69581      .   S
    C309   O595      0.69568      .   S
    C261   O595      0.69568      .   S
    C62    O596      0.54393      .   S
    C197   O596      0.54393      .   S
    C76    O597      0.54390      .   S
    C217   O597      0.54390      .   S
    C120   O598      0.68541  1_565   S
    C121   O598      0.68541      .   S
    C120   O599      0.54200      .   S
    C8     O599      0.54200      .   S
    C260   O600      0.68546      .   S
    C261   O600      0.68546      .   S
    C260   O601      0.54179      .   S
    C106   O601      0.54179      .   S
    C286   O602      0.66398      .   S
    C152   O602      0.66398      .   S
    C286   O603      0.69258      .   S
    C150   O603      0.69258      .   S
    C306   O604      0.66383      .   S
    C252   O604      0.66383      .   S
    C306   O605      0.68794      .   S
    C250   O605      0.68794  1_565   S
    C121   O606      0.54131      .   S
    C9     O606      0.54131      .   S
    C31    O607      0.54153      .   S
    C152   O607      0.54153      .   S
    C261   O608      0.54126      .   S
    C107   O608      0.54126  1_455   S
    C101   O609      0.54115      .   S
    C252   O609      0.54115      .   S
    C199   O610      0.64148      .   S
    C327   O610      0.64148      .   S
    C199   O611      0.74947      .   S
    C196   O611      0.74947      .   S
    C219   O612      0.64107      .   S
    C331   O612      0.64107      .   S
    C219   O613      0.74921      .   S
    C216   O613      0.74921      .   S
    C152   O614      0.68401      .   S
    C287   O614      0.68401      .   S
    C252   O615      0.68313      .   S
    C307   O615      0.68313      .   S
    C197   O616      0.70049      .   S
    C196   O616      0.70049      .   S
    C197   O617      0.69579      .   S
    C198   O617      0.69579      .   S
    C217   O618      0.70047      .   S
    C216   O618      0.70047      .   S
    C217   O619      0.69575      .   S
    C218   O619      0.69575      .   S
    C29    O620      0.54169      .   S
    C150   O620      0.54169      .   S
    C99    O621      0.54053      .   S
    C250   O621      0.54053      .   S
    C250   O622      0.69052  1_565   S
    C251   O622      0.69052      .   S
    C150   O623      0.68506      .   S
    C151   O623      0.68506      .   S
    C196   O624      0.70111      .   S
    C195   O624      0.70111      .   S
    C77    O625      0.54432      .   S
    C218   O625      0.54432      .   S
    C216   O626      0.70094      .   S
    C215   O626      0.70094      .   S
    C63    O627      0.54432      .   S
    C198   O627      0.54432      .   S
    C102   O628      0.54517      .   S
    C254   O628      0.54517      .   S
    C32    O629      0.54517      .   S
    C154   O629      0.54517      .   S
    C218   O630      0.69922      .   S
    C213   O630      0.69922      .   S
    C198   O631      0.69936      .   S
    C193   O631      0.69936      .   S
    C287   O632      0.69665      .   S
    C151   O632      0.69665      .   S
    C287   O633      0.71315      .   S
    C153   O633      0.71315      .   S
    C307   O634      0.69681      .   S
    C251   O634      0.69681      .   S
    C307   O635      0.71355      .   S
    C253   O635      0.71355      .   S
    C151   O636      0.54190      .   S
    C30    O636      0.54190      .   S
    C251   O637      0.54196      .   S
    C100   O637      0.54196      .   S
    C254   O638      0.70057      .   S
    C253   O638      0.70057      .   S
    C254   O639      0.69559      .   S
    C255   O639      0.69559      .   S
    C154   O640      0.70061      .   S
    C153   O640      0.70061      .   S
    C154   O641      0.69585      .   S
    C155   O641      0.69585      .   S
    C72    O642      0.54257      .   S
    C211   O642      0.54257      .   S
    C58    O643      0.54194      .   S
    C191   O643      0.54194      .   S
    C195   O644      0.54389      .   S
    C61    O644      0.54389      .   S
    C195   O645      0.69357      .   S
    C194   O645      0.69357      .   S
    C215   O646      0.54389      .   S
    C75    O646      0.54389      .   S
    C215   O647      0.69567      .   S
    C214   O647      0.69567      .   S
    C153   O648      0.69933      .   S
    C158   O648      0.69933      .   S
    C253   O649      0.69932      .   S
    C258   O649      0.69932      .   S
    C103   O650      0.54387      .   S
    C255   O650      0.54387      .   S
    C33    O651      0.54389      .   S
    C155   O651      0.54389      .   S
    C213   O652      0.70057      .   S
    C214   O652      0.70057      .   S
    C213   O653      0.71292      .   S
    C299   O653      0.71292      .   S
    C193   O654      0.69931      .   S
    C194   O654      0.69931      .   S
    C193   O655      0.71315      .   S
    C295   O655      0.71315      .   S
    C255   O656      0.70096      .   S
    C256   O656      0.70096      .   S
    C155   O657      0.70097      .   S
    C156   O657      0.70097      .   S
    C194   O658      0.54875      .   S
    C60    O658      0.54875      .   S
    C214   O659      0.54519      .   S
    C74    O659      0.54519      .   S
    C211   O660      0.69659      .   S
    C299   O660      0.69659      .   S
    C211   O661      0.68510      .   S
    C210   O661      0.68510  1_565   S
    C191   O662      0.69661      .   S
    C295   O662      0.69661      .   S
    C191   O663      0.68502      .   S
    C190   O663      0.68502      .   S
    C299   O664      0.68385      .   S
    C212   O664      0.68385      .   S
    C295   O665      0.68400      .   S
    C192   O665      0.68400      .   S
    C158   O666      0.54433      .   S
    C35    O666      0.54433      .   S
    C158   O667      0.69580      .   S
    C157   O667      0.69580      .   S
    C258   O668      0.54430      .   S
    C105   O668      0.54430      .   S
    C258   O669      0.69581      .   S
    C257   O669      0.69581      .   S
    C256   O670      0.70053      .   S
    C257   O670      0.70053      .   S
    C256   O671      0.74931      .   S
    C259   O671      0.74931      .   S
    C156   O672      0.70058      .   S
    C157   O672      0.70058      .   S
    C156   O673      0.74958      .   S
    C159   O673      0.74958      .   S
    C210   O674      0.54165      .   S
    C71    O674      0.54165      .   S
    C210   O675      0.69257  1_565   S
    C298   O675      0.69257      .   S
    C190   O676      0.54169      .   S
    C57    O676      0.54169      .   S
    C190   O677      0.69263      .   S
    C294   O677      0.69263      .   S
    C339   O678      0.64104      .   S
    C259   O678      0.64104      .   S
    C339   O679      1.17907      .   S
    C5     O679      1.17907      .   S
    C319   O680      0.64148      .   S
    C159   O680      0.64148      .   S
    C319   O681      1.17187      .   S
    C2     O681      1.17187      .   S
    C257   O682      0.54392      .   S
    C104   O682      0.54392      .   S
    C157   O683      0.54389      .   S
    C34    O683      0.54389      .   S
    C79    O684      0.54135      .   S
    C221   O684      0.54135      .   S
    C37    O685      0.54110  1_655   S
    C161   O685      0.54110      .   S
    C212   O686      0.54120      .   S
    C73    O686      0.54120      .   S
    C212   O687      0.66383      .   S
    C298   O687      0.66383      .   S
    C192   O688      0.54119      .   S
    C59    O688      0.54119      .   S
    C192   O689      0.66402      .   S
    C294   O689      0.66402      .   S
    C78    O690      0.54198      .   S
    C220   O690      0.54198      .   S
    C36    O691      0.53924      .   S
    C160   O691      0.53924      .   S
    C259   O692      0.63713      .   S
    C338   O692      0.63713      .   S
    C159   O693      0.63639      .   S
    C318   O693      0.63639      .   S
    C221   O694      0.68545      .   S
    C220   O694      0.68545      .   S
    C221   O695      0.69577      .   S
    C301   O695      0.69577      .   S
    C161   O696      0.68513      .   S
    C160   O696      0.68513  1_565   S
    C161   O697      0.69585      .   S
    C289   O697      0.69585      .   S
    C160   O698      0.69639  1_565   S
    C288   O698      0.69639      .   S
    C220   O699      0.69302      .   S
    C300   O699      0.69302      .   S
    C301   O700      0.71395      .   S
    C223   O700      0.71395      .   S
    C301   O701      0.68204      .   S
    C222   O701      0.68204      .   S
    C289   O702      0.71372      .   S
    C163   O702      0.71372  1_655   S
    C289   O703      0.68202      .   S
    C162   O703      0.68202      .   S
    C300   O704      0.66571      .   S
    C222   O704      0.66571      .   S
    C300   O705      1.16570      .   S
    C5     O705      1.16570      .   S
    C288   O706      0.66561      .   S
    C162   O706      0.66561      .   S
    C288   O707      1.16565      .   S
    C2     O707      1.16565  1_565   S
    C338   O708      1.24689      .   S
    C5     O708      1.24689      .   S
    C318   O709      1.25593      .   S
    C2     O709      1.25593      .   S
    C223   O710      0.69906      .   S
    C224   O710      0.69906      .   S
    C223   O711      0.70008      .   S
    C228   O711      0.70008      .   S
    C81    O712      0.54442      .   S
    C224   O712      0.54442      .   S
    C39    O713      0.54439      .   S
    C164   O713      0.54439      .   S
    C163   O714      0.69900      .   S
    C164   O714      0.69900      .   S
    C163   O715      0.69997  1_655   S
    C168   O715      0.69997      .   S
    C321   O716      0.66345      .   S
    C169   O716      0.66345      .   S
    C84    O717      0.54487      .   S
    C228   O717      0.54487      .   S
    C42    O718      0.54490      .   S
    C168   O718      0.54490      .   S
    C224   O719      0.69567      .   S
    C225   O719      0.69567      .   S
    C164   O720      0.69565      .   S
    C165   O720      0.69565      .   S
    C228   O721      0.69641      .   S
    C227   O721      0.69641      .   S
    C168   O722      0.69633      .   S
    C167   O722      0.69633  1_655   S
    C333   O723      0.63245      .   S
    C229   O723      0.63245      .   S
    C225   O724      0.54410      .   S
    C82    O724      0.54410      .   S
    C225   O725      0.70030      .   S
    C226   O725      0.70030      .   S
    C165   O726      0.54411      .   S
    C40    O726      0.54411      .   S
    C165   O727      0.70028      .   S
    C166   O727      0.70028      .   S
    C227   O728      0.70077      .   S
    C226   O728      0.70077      .   S
    C227   O729      0.54456      .   S
    C83    O729      0.54456      .   S
    C5     O730      1.11752      .   S
    C328   O730      1.11752      .   S
    C167   O731      0.70077      .   S
    C166   O731      0.70077      .   S
    C167   O732      0.54447      .   S
    C41    O732      0.54447  1_455   S
    C2     O733      1.11789  1_565   S
    C324   O733      1.11789      .   S
    C226   O734      0.74988      .   S
    C229   O734      0.74988      .   S
    C166   O735      0.74996      .   S
    C169   O735      0.74996      .   S
