# CIF file generated by openbabel 2.4.90, see http://openbabel.sf.net
data_I
_chemical_name_common ''
_cell_length_a 17.215
_cell_length_b 17.395
_cell_length_c 18.482
_cell_angle_alpha 90.039
_cell_angle_beta 90.019
_cell_angle_gamma 90.14
_space_group_name_H-M_alt 'P 1'
_space_group_name_Hall 'P 1'
loop_
    _symmetry_equiv_pos_as_xyz
    x,y,z
loop_
    _atom_site_label
    _atom_site_type_symbol
    _atom_site_fract_x
    _atom_site_fract_y
    _atom_site_fract_z
    _atom_site_occupancy
    Zr0     Zr   0.77285   0.99387   0.52180   1.000
    Zr1     Zr   0.27392   0.50669   0.47779   1.000
    Zr2     Zr   0.27274   0.99370   0.97863   1.000
    Zr3     Zr   0.77389   0.50682   0.02203   1.000
    Zr4     Zr   0.72727   0.00628   0.02134   1.000
    Zr5     Zr   0.22612   0.49317   0.97794   1.000
    Zr6     Zr   0.22717   0.00613   0.47818   1.000
    Zr7     Zr   0.72609   0.49330   0.52210   1.000
    N8      N    0.48009   0.18449   0.54116   1.000
    O9      O    0.59466   0.09834   0.53790   1.000
    O10     O    0.40177   0.32489   0.50958   1.000
    N11     N    0.75725   0.81290   0.24188   1.000
    O12     O    0.76035   0.89448   0.35230   1.000
    O13     O    0.77125   0.69479   0.13742   1.000
    O14     O    0.76530   0.67482   0.16058   1.000
    N15     N    0.74297   0.18714   0.74169   1.000
    O16     O    0.73991   0.10564   0.85201   1.000
    O17     O    0.72886   0.30526   0.63734   1.000
    O18     O    0.73482   0.32526   0.66050   1.000
    N19     N    0.51956   0.68405   0.95819   1.000
    O20     O    0.40470   0.59773   0.96164   1.000
    O21     O    0.59832   0.82472   0.98927   1.000
    N22     N    0.25705   0.81268   0.25824   1.000
    O23     O    0.26011   0.89426   0.14795   1.000
    O24     O    0.27116   0.69465   0.36260   1.000
    O25     O    0.26520   0.67465   0.33943   1.000
    N26     N    0.98046   0.31589   0.45847   1.000
    O27     O    0.09532   0.40216   0.46170   1.000
    O28     O    0.90165   0.17548   0.49009   1.000
    N29     N    0.75710   0.68741   0.74165   1.000
    O30     O    0.76072   0.60605   0.85227   1.000
    O31     O    0.77097   0.80548   0.63710   1.000
    O32     O    0.76425   0.82552   0.66000   1.000
    N33     N    0.01993   0.81548   0.04119   1.000
    O34     O    0.90538   0.90169   0.03774   1.000
    O35     O    0.09825   0.67502   0.00965   1.000
    N36     N    0.98008   0.18451   0.95831   1.000
    O37     O    0.09462   0.09829   0.96199   1.000
    O38     O    0.90176   0.32496   0.99008   1.000
    N39     N    0.48045   0.31594   0.04178   1.000
    O40     O    0.59530   0.40226   0.03833   1.000
    O41     O    0.40168   0.17527   0.01070   1.000
    N42     N    0.25714   0.68732   0.75824   1.000
    O43     O    0.26078   0.60594   0.64758   1.000
    O44     O    0.27095   0.80539   0.86296   1.000
    O45     O    0.26424   0.82544   0.84008   1.000
    N46     N    0.24276   0.18691   0.75806   1.000
    O47     O    0.23967   0.10543   0.64766   1.000
    O48     O    0.22876   0.30511   0.86253   1.000
    O49     O    0.23471   0.32508   0.83937   1.000
    N50     N    0.74287   0.31267   0.24171   1.000
    O51     O    0.73922   0.39405   0.35236   1.000
    O52     O    0.72906   0.19459   0.13700   1.000
    O53     O    0.73576   0.17455   0.15988   1.000
    N54     N    0.51991   0.81550   0.45878   1.000
    O55     O    0.40534   0.90166   0.46206   1.000
    O56     O    0.59824   0.67510   0.49036   1.000
    N57     N    0.01956   0.68411   0.54150   1.000
    O58     O    0.90469   0.59783   0.53823   1.000
    O59     O    0.09837   0.82452   0.50990   1.000
    N60     N    0.24291   0.31257   0.25827   1.000
    O61     O    0.23929   0.39393   0.14767   1.000
    O62     O    0.22905   0.19451   0.36284   1.000
    O63     O    0.23576   0.17447   0.33995   1.000
loop_
    _geom_bond_atom_site_label_1
    _geom_bond_atom_site_label_2
    _geom_bond_distance
    _geom_bond_site_symmetry_2
    _ccdc_geom_bond_type
    N8     O9        2.48081      .   S
    Zr0    O9        3.58144  1_565   S
    N8     O10       2.85322      .   S
    Zr1    O10       3.90203      .   S
    N11    O12       2.48543      .   S
    Zr0    O12       3.58324      .   S
    N11    O13       2.82897      .   S
    Zr3    O13       3.90305      .   S
    N11    O14       2.83595      .   S
    Zr3    O14       3.88741      .   S
    N15    O16       2.48452      .   S
    Zr4    O16       3.58257  1_554   S
    N15    O17       2.82990      .   S
    Zr7    O17       3.90491      .   S
    N15    O18       2.83734      .   S
    Zr7    O18       3.88876      .   S
    N19    O20       2.48078      .   S
    Zr5    O20       3.58095      .   S
    N19    O21       2.85262      .   S
    Zr4    O21       3.90081  1_544   S
    N22    O23       2.48511      .   S
    Zr2    O23       3.58303  1_556   S
    N22    O24       2.82873      .   S
    Zr1    O24       3.90315      .   S
    N22    O25       2.83597      .   S
    Zr1    O25       3.88706      .   S
    N26    O27       2.48021  1_655   S
    Zr1    O27       3.58024      .   S
    N26    O28       2.85198      .   S
    Zr0    O28       3.89980  1_565   S
    N29    O30       2.48822      .   S
    Zr3    O30       3.58932  1_554   S
    N29    O31       2.83053      .   S
    Zr0    O31       3.91041      .   S
    N29    O32       2.84039      .   S
    Zr0    O32       3.88978      .   S
    N33    O34       2.48107  1_455   S
    Zr4    O34       3.58202  1_545   S
    N33    O35       2.85343      .   S
    Zr5    O35       3.90227  1_556   S
    N36    O37       2.48120  1_655   S
    Zr2    O37       3.58241  1_565   S
    N36    O38       2.85433      .   S
    Zr3    O38       3.90296  1_554   S
    N39    O40       2.48079      .   S
    Zr3    O40       3.58099      .   S
    N39    O41       2.85260      .   S
    Zr2    O41       3.90080  1_566   S
    N42    O43       2.48752      .   S
    Zr1    O43       3.58805      .   S
    N42    O44       2.83070      .   S
    Zr2    O44       3.91031      .   S
    N42    O45       2.84052      .   S
    Zr2    O45       3.89009      .   S
    N46    O47       2.48416      .   S
    Zr6    O47       3.58209      .   S
    N46    O48       2.83033      .   S
    Zr5    O48       3.90450      .   S
    N46    O49       2.83745      .   S
    Zr5    O49       3.88876      .   S
    N50    O51       2.48733      .   S
    Zr7    O51       3.58729      .   S
    N50    O52       2.83058      .   S
    Zr4    O52       3.91023      .   S
    N50    O53       2.84042      .   S
    Zr4    O53       3.88999      .   S
    N54    O55       2.48080      .   S
    Zr6    O55       3.58141  1_545   S
    N54    O56       2.85322      .   S
    Zr7    O56       3.90193      .   S
    N57    O58       2.48029  1_455   S
    Zr7    O58       3.58047      .   S
    N57    O59       2.85196      .   S
    Zr6    O59       3.89980  1_545   S
    N60    O61       2.48789      .   S
    Zr5    O61       3.58901  1_556   S
    N60    O62       2.83074      .   S
    Zr6    O62       3.91049      .   S
    N60    O63       2.84052      .   S
    Zr6    O63       3.88994      .   S
