# CIF file generated by openbabel 2.4.90, see http://openbabel.sf.net
data_I
_chemical_name_common ''
_cell_length_a 17.215
_cell_length_b 17.395
_cell_length_c 18.482
_cell_angle_alpha 90.039
_cell_angle_beta 90.019
_cell_angle_gamma 90.14
_space_group_name_H-M_alt 'P 1'
_space_group_name_Hall 'P 1'
loop_
    _symmetry_equiv_pos_as_xyz
    x,y,z
loop_
    _atom_site_label
    _atom_site_type_symbol
    _atom_site_fract_x
    _atom_site_fract_y
    _atom_site_fract_z
    _atom_site_occupancy
    N0      N    0.48009   0.18449   0.54116   1.000
    N1      N    0.75725   0.81290   0.24188   1.000
    N2      N    0.74297   0.18714   0.74169   1.000
    N3      N    0.51956   0.68405   0.95819   1.000
    N4      N    0.25705   0.81268   0.25824   1.000
    N5      N    0.98046   0.31589   0.45847   1.000
    N6      N    0.75710   0.68741   0.74165   1.000
    N7      N    0.01993   0.81548   0.04119   1.000
    N8      N    0.98008   0.18451   0.95831   1.000
    N9      N    0.48045   0.31594   0.04178   1.000
    N10     N    0.25714   0.68732   0.75824   1.000
    N11     N    0.24276   0.18691   0.75806   1.000
    N12     N    0.74287   0.31267   0.24171   1.000
    N13     N    0.51991   0.81550   0.45878   1.000
    N14     N    0.01956   0.68411   0.54150   1.000
    N15     N    0.24291   0.31257   0.25827   1.000
    Zr16    Zr   0.27392   0.50669   0.47779   1.000
    O17     O    0.27254   0.60067   0.42019   1.000
    O18     O    0.26956   0.59067   0.40861   1.000
    O19     O    0.18462   0.45443   0.46975   1.000
    O20     O    0.33784   0.41579   0.49368   1.000
    O21     O    0.26735   0.55631   0.56269   1.000
    Zr22    Zr   0.77285   0.99387   0.52180   1.000
    O23     O    0.77191   0.89968   0.57945   1.000
    O24     O    0.76855   0.90970   0.59090   1.000
    O25     O    0.83725   0.08468   0.50594   1.000
    O26     O    0.68375   0.04611   0.52985   1.000
    O27     O    0.76660   0.94418   0.43705   1.000
    Zr28    Zr   0.27274   0.99370   0.97863   1.000
    O29     O    0.33721   0.08448   0.99467   1.000
    O30     O    0.18368   0.04600   0.97031   1.000
    O31     O    0.26849   0.90957   0.90936   1.000
    O32     O    0.26642   0.94398   0.06329   1.000
    O33     O    0.27184   0.89955   0.92080   1.000
    Zr34    Zr   0.72609   0.49330   0.52210   1.000
    O35     O    0.81539   0.54557   0.53017   1.000
    O36     O    0.66216   0.58420   0.50623   1.000
    O37     O    0.73046   0.40928   0.59130   1.000
    O38     O    0.73266   0.44368   0.43723   1.000
    O39     O    0.72747   0.39928   0.57972   1.000
    Zr40    Zr   0.77389   0.50682   0.02203   1.000
    O41     O    0.76730   0.55643   0.93715   1.000
    O42     O    0.83782   0.41589   0.00606   1.000
    O43     O    0.76959   0.59082   0.09131   1.000
    O44     O    0.68459   0.45454   0.03018   1.000
    O45     O    0.77257   0.60080   0.07973   1.000
    Zr46    Zr   0.22612   0.49317   0.97794   1.000
    O47     O    0.23271   0.44355   0.06281   1.000
    O48     O    0.16219   0.58410   0.99380   1.000
    O49     O    0.22744   0.39914   0.92023   1.000
    O50     O    0.23041   0.40913   0.90865   1.000
    O51     O    0.31541   0.54545   0.96979   1.000
    Zr52    Zr   0.72727   0.00628   0.02134   1.000
    O53     O    0.81633   0.95399   0.02954   1.000
    O54     O    0.72817   0.10044   0.07917   1.000
    O55     O    0.73152   0.09042   0.09061   1.000
    O56     O    0.73359   0.05596   0.93667   1.000
    O57     O    0.66280   0.91550   0.00530   1.000
    Zr58    Zr   0.22717   0.00613   0.47818   1.000
    O59     O    0.23146   0.09030   0.40906   1.000
    O60     O    0.31625   0.95389   0.47012   1.000
    O61     O    0.22811   0.10032   0.42051   1.000
    O62     O    0.16277   0.91533   0.49404   1.000
    O63     O    0.23342   0.05578   0.56292   1.000
loop_
    _geom_bond_atom_site_label_1
    _geom_bond_atom_site_label_2
    _geom_bond_distance
    _geom_bond_site_symmetry_2
    _ccdc_geom_bond_type
    Zr16   O17       1.95158      .   S
    N4     O17       4.75920      .   S
    Zr16   O18       1.94353      .   S
    N4     O18       4.76465      .   S
    Zr16   O19       1.79012      .   S
    N5     O19       4.26162  1_655   S
    Zr16   O20       1.95101      .   S
    N0     O20       4.79650      .   S
    Zr16   O21       1.79402      .   S
    N10    O21       4.27534      .   S
    Zr22   O23       1.95521      .   S
    N6     O23       4.76404      .   S
    Zr22   O24       1.94489      .   S
    N6     O24       4.77119      .   S
    Zr22   O25       1.94990  1_565   S
    N5     O25       4.79390      .   S
    Zr22   O26       1.79072  1_565   S
    N0     O26       4.26290      .   S
    Zr22   O27       1.79162      .   S
    N1     O27       4.27072      .   S
    Zr28   O29       1.95040  1_565   S
    N9     O29       4.79513  1_554   S
    Zr28   O30       1.79121  1_565   S
    N8     O30       4.26385  1_655   S
    Zr28   O31       1.94504      .   S
    N10    O31       4.77135      .   S
    Zr28   O32       1.79151  1_556   S
    N4     O32       4.27028      .   S
    Zr28   O33       1.95516      .   S
    N10    O33       4.76430      .   S
    Zr34   O35       1.79023      .   S
    N14    O35       4.26181  1_455   S
    Zr34   O36       1.95097      .   S
    N13    O36       4.79643      .   S
    Zr34   O37       1.94438      .   S
    N2     O37       4.76683      .   S
    Zr34   O38       1.79364      .   S
    N12    O38       4.27478      .   S
    Zr34   O39       1.95246      .   S
    N2     O39       4.76131      .   S
    Zr40   O41       1.79466  1_554   S
    N6     O41       4.27667      .   S
    Zr40   O42       1.95148      .   S
    N8     O42       4.79804  1_556   S
    Zr40   O43       1.94371      .   S
    N1     O43       4.76474      .   S
    Zr40   O44       1.79049      .   S
    N9     O44       4.26259      .   S
    Zr40   O45       1.95152      .   S
    N1     O45       4.75947      .   S
    Zr46   O47       1.79451  1_556   S
    N15    O47       4.27619      .   S
    Zr46   O48       1.95113      .   S
    N7     O48       4.79681  1_554   S
    Zr46   O49       1.95225      .   S
    N11    O49       4.76158      .   S
    Zr46   O50       1.94438      .   S
    N11    O50       4.76691      .   S
    Zr46   O51       1.79047      .   S
    N3     O51       4.26256      .   S
    Zr52   O53       1.79101  1_545   S
    N7     O53       4.26349  1_455   S
    Zr52   O54       1.95512      .   S
    N12    O54       4.76414      .   S
    Zr52   O55       1.94500      .   S
    N12    O55       4.77121      .   S
    Zr52   O56       1.79128  1_554   S
    N2     O56       4.26947      .   S
    Zr52   O57       1.95041  1_545   S
    N3     O57       4.79516  1_556   S
    Zr58   O59       1.94497      .   S
    N15    O59       4.77141      .   S
    Zr58   O60       1.79070  1_545   S
    N13    O60       4.26288      .   S
    Zr58   O61       1.95525      .   S
    N15    O61       4.76430      .   S
    Zr58   O62       1.94990  1_545   S
    N14    O62       4.79389      .   S
    Zr58   O63       1.79105      .   S
    N11    O63       4.26888      .   S
