# CIF file generated by openbabel 2.4.90, see http://openbabel.sf.net
data_I
_chemical_name_common ''
_cell_length_a 9.5345
_cell_length_b 11.0795
_cell_length_c 17.059
_cell_angle_alpha 90
_cell_angle_beta 90
_cell_angle_gamma 90.038
_space_group_name_H-M_alt 'P 1'
_space_group_name_Hall 'P 1'
loop_
    _symmetry_equiv_pos_as_xyz
    x,y,z
loop_
    _atom_site_label
    _atom_site_type_symbol
    _atom_site_fract_x
    _atom_site_fract_y
    _atom_site_fract_z
    _atom_site_occupancy
    H0      H    0.76519   0.33686   0.61309   1.000
    H1      H    0.76519   0.33686   0.11308   1.000
    H2      H    0.82093   0.13677   0.57416   1.000
    H3      H    0.82093   0.13677   0.07414   1.000
    H4      H    0.60860   0.28443   0.71070   1.000
    H5      H    0.60860   0.28443   0.21069   1.000
    H6      H    0.63686   0.04141   0.53163   1.000
    H7      H    0.63686   0.04141   0.03161   1.000
    H8      H    0.73230   0.66252   0.86210   1.000
    H9      H    0.73230   0.66252   0.36208   1.000
    H10     H    0.67922   0.86296   0.82446   1.000
    H11     H    0.67922   0.86296   0.32445   1.000
    H12     H    0.88907   0.71203   0.96053   1.000
    H13     H    0.88907   0.71203   0.46052   1.000
    H14     H    0.86293   0.95753   0.78166   1.000
    H15     H    0.86293   0.95753   0.28165   1.000
    H16     H    0.23422   0.83587   0.63688   1.000
    H17     H    0.23422   0.83587   0.13686   1.000
    H18     H    0.17876   0.63584   0.67565   1.000
    H19     H    0.17876   0.63584   0.17563   1.000
    H20     H    0.39113   0.78393   0.53925   1.000
    H21     H    0.39113   0.78393   0.03924   1.000
    H22     H    0.36216   0.54066   0.71839   1.000
    H23     H    0.36216   0.54066   0.21838   1.000
    H24     H    0.26696   0.16214   0.88773   1.000
    H25     H    0.26696   0.16214   0.38772   1.000
    H26     H    0.32012   0.36269   0.92568   1.000
    H27     H    0.32012   0.36269   0.42567   1.000
    H28     H    0.11020   0.21183   0.78937   1.000
    H29     H    0.11020   0.21183   0.28936   1.000
    H30     H    0.13566   0.45673   0.96827   1.000
    H31     H    0.13566   0.45673   0.46826   1.000
    C32     C    0.61993   0.30200   0.51950   1.000
    C33     C    0.61993   0.30200   0.01948   1.000
    C34     C    0.67516   0.27606   0.60303   1.000
    C35     C    0.67516   0.27606   0.10301   1.000
    C36     C    0.72650   0.14616   0.61126   1.000
    C37     C    0.72650   0.14616   0.11124   1.000
    C38     C    0.77282   0.11065   0.69402   1.000
    C39     C    0.77282   0.11065   0.19401   1.000
    C40     C    0.87927   0.69741   0.76926   1.000
    C41     C    0.87927   0.69741   0.26925   1.000
    C42     C    0.82342   0.72239   0.85276   1.000
    C43     C    0.82342   0.72239   0.35275   1.000
    C44     C    0.77380   0.85283   0.86137   1.000
    C45     C    0.77380   0.85283   0.36136   1.000
    C46     C    0.72823   0.88871   0.94420   1.000
    C47     C    0.72823   0.88871   0.44419   1.000
    C48     C    0.37956   0.80140   0.73049   1.000
    C49     C    0.37956   0.80140   0.23047   1.000
    C50     C    0.32442   0.77533   0.64691   1.000
    C51     C    0.32442   0.77533   0.14690   1.000
    C52     C    0.27327   0.64528   0.63861   1.000
    C53     C    0.27327   0.64528   0.13860   1.000
    C54     C    0.22708   0.60946   0.55584   1.000
    C55     C    0.22708   0.60946   0.05583   1.000
    C56     C    0.12009   0.19698   0.98061   1.000
    C57     C    0.12009   0.19698   0.48060   1.000
    C58     C    0.17595   0.22200   0.89713   1.000
    C59     C    0.17595   0.22200   0.39711   1.000
    C60     C    0.22571   0.35246   0.88863   1.000
    C61     C    0.22571   0.35246   0.38862   1.000
    C62     C    0.27162   0.38835   0.80588   1.000
    C63     C    0.27162   0.38835   0.30586   1.000
    O64     O    0.49938   0.34867   0.51348   1.000
    O65     O    0.49938   0.34867   0.01347   1.000
    O66     O    0.70050   0.27534   0.46304   1.000
    O67     O    0.70050   0.27534   0.00000   1.000
    O68     O    0.56649   0.30245   0.65935   1.000
    O69     O    0.56649   0.30245   0.15933   1.000
    O70     O    0.62131   0.05936   0.58937   1.000
    O71     O    0.62131   0.05936   0.08935   1.000
    O72     O    0.77185   0.18600   0.75002   1.000
    O73     O    0.77185   0.18600   0.25000   1.000
    O74     O    0.80646   0.99998   0.70004   1.000
    O75     O    0.80646   0.99998   0.20002   1.000
    O76     O    1.00000   0.65110   0.76333   1.000
    O77     O    1.00000   0.65110   0.26331   1.000
    O78     O    0.79912   0.72474   0.71276   1.000
    O79     O    0.79912   0.72474   0.21275   1.000
    O80     O    0.93106   0.69354   0.90921   1.000
    O81     O    0.93106   0.69354   0.40920   1.000
    O82     O    0.87961   0.93891   0.83915   1.000
    O83     O    0.87961   0.93891   0.33914   1.000
    O84     O    0.72816   0.81326   0.50011   1.000
    O85     O    0.72816   0.81326   0.00010   1.000
    O86     O    0.69104   0.00033   0.94976   1.000
    O87     O    0.69104   0.00033   0.44975   1.000
    O88     O    0.49995   0.84856   0.73648   1.000
    O89     O    0.49995   0.84856   0.23647   1.000
    O90     O    0.29909   0.77443   0.78694   1.000
    O91     O    0.29909   0.77443   0.28692   1.000
    O92     O    0.43304   0.80226   0.59062   1.000
    O93     O    0.43304   0.80226   0.09061   1.000
    O94     O    0.37834   0.55857   0.66071   1.000
    O95     O    0.37834   0.55857   0.16070   1.000
    O96     O    0.22836   0.68455   0.99973   1.000
    O97     O    0.22836   0.68455   0.49971   1.000
    O98     O    0.19067   0.49852   0.55022   1.000
    O99     O    0.19067   0.49852   0.05020   1.000
    O100    O    0.99915   0.15100   0.98661   1.000
    O101    O    0.99915   0.15100   0.48659   1.000
    O102    O    0.20048   0.22407   0.03706   1.000
    O103    O    0.20048   0.22407   0.53705   1.000
    O104    O    0.06819   0.19337   0.84069   1.000
    O105    O    0.06819   0.19337   0.34068   1.000
    O106    O    0.11978   0.43840   0.91064   1.000
    O107    O    0.11978   0.43840   0.41063   1.000
    O108    O    0.27173   0.31295   0.74994   1.000
    O109    O    0.27173   0.31295   0.24993   1.000
    O110    O    0.30649   0.49969   0.80010   1.000
    O111    O    0.30649   0.49969   0.30008   1.000
loop_
    _geom_bond_atom_site_label_1
    _geom_bond_atom_site_label_2
    _geom_bond_distance
    _geom_bond_site_symmetry_2
    _ccdc_geom_bond_type
    O67    C33       0.88777      .   S
    O85    C46       1.26808  1_554   S
    O65    C33       1.26476      .   S
    C33    C35       1.54617      .   S
    H7     O71       1.01575      .   S
    O102   C56       1.26674  1_554   S
    H21    O93       0.98425      .   S
    O99    C55       1.28061      .   S
    C55    C53       1.53130      .   S
    C55    O96       1.26813  1_554   S
    H3     C37       1.10550      .   S
    O71    C37       1.43839      .   S
    O93    C51       1.44338      .   S
    C35    C37       1.52698      .   S
    C35    H1        1.10435      .   S
    C35    O69       1.44308      .   S
    C37    C39       1.53084      .   S
    H17    C51       1.10433      .   S
    C53    C51       1.52741      .   S
    C53    O95       1.43873      .   S
    C53    H19       1.10551      .   S
    C51    C49       1.54668      .   S
    O69    H5        0.98419      .   S
    O95    H23       1.01551      .   S
    C39    O75       1.27173  1_545   S
    C39    O73       1.26870      .   S
    O79    C41       1.26686      .   S
    C49    O89       1.26500      .   S
    C49    O91       1.26688      .   S
    O109   C63       1.26826      .   S
    O77    C41       1.26466      .   S
    C41    C43       1.54575      .   S
    H15    O83       1.01471      .   S
    H29    O105      0.98421      .   S
    O111   C63       1.28119      .   S
    C63    C61       1.53051      .   S
    H11    C45       1.10562      .   S
    O83    C45       1.43864      .   S
    O105   C59       1.44313      .   S
    C43    C45       1.52806      .   S
    C43    H9        1.10425      .   S
    C43    O81       1.44335      .   S
    C45    C47       1.53092      .   S
    H25    C59       1.10420      .   S
    C61    C59       1.52793      .   S
    C61    O107      1.43844      .   S
    C61    H27       1.10562      .   S
    C59    C57       1.54543      .   S
    O81    H13       0.98434      .   S
    O107   H31       1.01520      .   S
    C47    O87       1.29025  1_565   S
    C47    O84       1.26844      .   S
    O66    C32       1.26692      .   S
    C57    O101      1.26449  1_455   S
    C57    O103      1.26674      .   S
    O97    C54       1.26849      .   S
    O64    C32       1.26476      .   S
    C32    C34       1.54617      .   S
    H6     O70       1.01575      .   S
    H20    O92       0.98424      .   S
    O98    C54       1.28061      .   S
    C54    C52       1.53130      .   S
    H2     C36       1.10550      .   S
    O70    C36       1.43839      .   S
    O92    C50       1.44338      .   S
    C34    C36       1.52698      .   S
    C34    H0        1.10435      .   S
    C34    O68       1.44308      .   S
    C36    C38       1.53084      .   S
    H16    C50       1.10433      .   S
    C52    C50       1.52741      .   S
    C52    O94       1.43873      .   S
    C52    H18       1.10551      .   S
    C50    C48       1.54668      .   S
    O68    H4        0.98419      .   S
    O94    H22       1.01551      .   S
    C38    O74       1.27173  1_545   S
    C38    O72       1.26870      .   S
    O78    C40       1.26686      .   S
    C48    O88       1.26500      .   S
    C48    O90       1.26688      .   S
    O108   C62       1.26826      .   S
    O76    C40       1.26466      .   S
    C40    C42       1.54575      .   S
    H14    O82       1.01471      .   S
    H28    O104      0.98421      .   S
    O110   C62       1.28119      .   S
    C62    C60       1.53051      .   S
    H10    C44       1.10562      .   S
    O82    C44       1.43864      .   S
    O104   C58       1.44313      .   S
    C42    C44       1.52806      .   S
    C42    H8        1.10425      .   S
    C42    O80       1.44335      .   S
    C44    C46       1.53092      .   S
    H24    C58       1.10420      .   S
    C60    C58       1.52793      .   S
    C60    O106      1.43844      .   S
    C60    H26       1.10562      .   S
    C58    C56       1.54543      .   S
    O80    H12       0.98434      .   S
    O106   H30       1.01520      .   S
    C46    O86       1.29025  1_565   S
    C56    O100      1.26449  1_455   S
    O67    C35       1.77385      .   S
