# CIF file generated by openbabel 2.4.90, see http://openbabel.sf.net
data_I
_chemical_name_common ''
_cell_length_a 9.5345
_cell_length_b 11.0795
_cell_length_c 17.059
_cell_angle_alpha 90
_cell_angle_beta 90
_cell_angle_gamma 90.038
_space_group_name_H-M_alt 'P 1'
_space_group_name_Hall 'P 1'
loop_
    _symmetry_equiv_pos_as_xyz
    x,y,z
loop_
    _atom_site_label
    _atom_site_type_symbol
    _atom_site_fract_x
    _atom_site_fract_y
    _atom_site_fract_z
    _atom_site_occupancy
    Ca0     Ca   0.33400   0.34922   0.11335   1.000
    Ca1     Ca   0.16479   0.64909   0.86334   1.000
    Ca2     Ca   0.16479   0.64909   0.36333   1.000
    Ca3     Ca   0.66523   0.85026   0.63660   1.000
    Ca4     Ca   0.66523   0.85026   0.13659   1.000
    Ca5     Ca   0.83415   0.15003   0.88664   1.000
    Ca6     Ca   0.83415   0.15003   0.38663   1.000
    H7      H    0.76519   0.33686   0.61309   1.000
    H8      H    0.76519   0.33686   0.11308   1.000
    H9      H    0.82093   0.13677   0.57416   1.000
    H10     H    0.82093   0.13677   0.07414   1.000
    H11     H    0.60860   0.28443   0.71070   1.000
    H12     H    0.60860   0.28443   0.21069   1.000
    H13     H    0.63686   0.04141   0.53163   1.000
    H14     H    0.63686   0.04141   0.03161   1.000
    H15     H    0.73230   0.66252   0.86210   1.000
    H16     H    0.73230   0.66252   0.36208   1.000
    H17     H    0.67922   0.86296   0.82446   1.000
    H18     H    0.67922   0.86296   0.32445   1.000
    H19     H    0.88907   0.71203   0.96053   1.000
    H20     H    0.88907   0.71203   0.46052   1.000
    H21     H    0.86293   0.95753   0.78166   1.000
    H22     H    0.86293   0.95753   0.28165   1.000
    H23     H    0.23422   0.83587   0.63688   1.000
    H24     H    0.23422   0.83587   0.13686   1.000
    H25     H    0.17876   0.63584   0.67565   1.000
    H26     H    0.17876   0.63584   0.17563   1.000
    H27     H    0.39113   0.78393   0.53925   1.000
    H28     H    0.39113   0.78393   0.03924   1.000
    H29     H    0.36216   0.54066   0.71839   1.000
    H30     H    0.36216   0.54066   0.21838   1.000
    H31     H    0.26696   0.16214   0.88773   1.000
    Ca32    Ca   0.33400   0.34922   0.61336   1.000
    H33     H    0.26696   0.16214   0.38772   1.000
    H34     H    0.32012   0.36269   0.92568   1.000
    H35     H    0.32012   0.36269   0.42567   1.000
    H36     H    0.11020   0.21183   0.78937   1.000
    H37     H    0.11020   0.21183   0.28936   1.000
    H38     H    0.13566   0.45673   0.96827   1.000
    H39     H    0.13566   0.45673   0.46826   1.000
    C40     C    0.61993   0.30200   0.51950   1.000
    C41     C    0.61993   0.30200   0.01948   1.000
    C42     C    0.67516   0.27606   0.60303   1.000
    C43     C    0.67516   0.27606   0.10301   1.000
    C44     C    0.72650   0.14616   0.61126   1.000
    C45     C    0.72650   0.14616   0.11124   1.000
    C46     C    0.77282   0.11065   0.69402   1.000
    C47     C    0.77282   0.11065   0.19401   1.000
    C48     C    0.87927   0.69741   0.76926   1.000
    C49     C    0.87927   0.69741   0.26925   1.000
    C50     C    0.82342   0.72239   0.85276   1.000
    C51     C    0.82342   0.72239   0.35275   1.000
    C52     C    0.77380   0.85283   0.86137   1.000
    C53     C    0.77380   0.85283   0.36136   1.000
    C54     C    0.72823   0.88871   0.94420   1.000
    C55     C    0.72823   0.88871   0.44419   1.000
    C56     C    0.37956   0.80140   0.73049   1.000
    C57     C    0.37956   0.80140   0.23047   1.000
    C58     C    0.32442   0.77533   0.64691   1.000
    C59     C    0.32442   0.77533   0.14690   1.000
    C60     C    0.27327   0.64528   0.63861   1.000
    C61     C    0.27327   0.64528   0.13860   1.000
    C62     C    0.22708   0.60946   0.55584   1.000
    C63     C    0.22708   0.60946   0.05583   1.000
    C64     C    0.12009   0.19698   0.98061   1.000
    C65     C    0.12009   0.19698   0.48060   1.000
    C66     C    0.17595   0.22200   0.89713   1.000
    C67     C    0.17595   0.22200   0.39711   1.000
    C68     C    0.22571   0.35246   0.88863   1.000
    C69     C    0.22571   0.35246   0.38862   1.000
    C70     C    0.27162   0.38835   0.80588   1.000
    C71     C    0.27162   0.38835   0.30586   1.000
    O72     O    0.49938   0.34867   0.51348   1.000
    O73     O    0.49938   0.34867   0.01347   1.000
    O74     O    0.70050   0.27534   0.46304   1.000
    O75     O    0.70050   0.27534   0.00000   1.000
    O76     O    0.56649   0.30245   0.65935   1.000
    O77     O    0.56649   0.30245   0.15933   1.000
    O78     O    0.62131   0.05936   0.58937   1.000
    O79     O    0.62131   0.05936   0.08935   1.000
    O80     O    0.77185   0.18600   0.75002   1.000
    O81     O    0.77185   0.18600   0.25000   1.000
    O82     O    0.80646   0.99998   0.70004   1.000
    O83     O    0.80646   0.99998   0.20002   1.000
    O84     O    1.00000   0.65110   0.76333   1.000
    O85     O    1.00000   0.65110   0.26331   1.000
    O86     O    0.79912   0.72474   0.71276   1.000
    O87     O    0.79912   0.72474   0.21275   1.000
    O88     O    0.93106   0.69354   0.90921   1.000
    O89     O    0.93106   0.69354   0.40920   1.000
    O90     O    0.87961   0.93891   0.83915   1.000
    O91     O    0.87961   0.93891   0.33914   1.000
    O92     O    0.72816   0.81326   0.50011   1.000
    O93     O    0.72816   0.81326   0.00010   1.000
    O94     O    0.69104   0.00033   0.94976   1.000
    O95     O    0.69104   0.00033   0.44975   1.000
    O96     O    0.49995   0.84856   0.73648   1.000
    O97     O    0.49995   0.84856   0.23647   1.000
    O98     O    0.29909   0.77443   0.78694   1.000
    O99     O    0.29909   0.77443   0.28692   1.000
    O100    O    0.43304   0.80226   0.59062   1.000
    O101    O    0.43304   0.80226   0.09061   1.000
    O102    O    0.37834   0.55857   0.66071   1.000
    O103    O    0.37834   0.55857   0.16070   1.000
    O104    O    0.22836   0.68455   0.99973   1.000
    O105    O    0.22836   0.68455   0.49971   1.000
    O106    O    0.19067   0.49852   0.55022   1.000
    O107    O    0.19067   0.49852   0.05020   1.000
    O108    O    0.99915   0.15100   0.98661   1.000
    O109    O    0.99915   0.15100   0.48659   1.000
    O110    O    0.20048   0.22407   0.03706   1.000
    O111    O    0.20048   0.22407   0.53705   1.000
    O112    O    0.06819   0.19337   0.84069   1.000
    O113    O    0.06819   0.19337   0.34068   1.000
    O114    O    0.11978   0.43840   0.91064   1.000
    O115    O    0.11978   0.43840   0.41063   1.000
    O116    O    0.27173   0.31295   0.74994   1.000
    O117    O    0.27173   0.31295   0.24993   1.000
    O118    O    0.30649   0.49969   0.80010   1.000
    O119    O    0.30649   0.49969   0.30008   1.000
loop_
    _geom_bond_atom_site_label_1
    _geom_bond_atom_site_label_2
    _geom_bond_distance
    _geom_bond_site_symmetry_2
    _ccdc_geom_bond_type
    O75    C41       0.88777      .   S
    O93    C54       1.26808  1_554   S
    O73    C41       1.26476      .   S
    O73    Ca0       2.32152      .   S
    C41    C43       1.54617      .   S
    H14    O79       1.01575      .   S
    O110   Ca0       2.28790      .   S
    O110   C64       1.26674  1_554   S
    H28    O101      0.98425      .   S
    O107   C63       1.28061      .   S
    C63    C61       1.53130      .   S
    C63    O104      1.26813  1_554   S
    H10    C45       1.10550      .   S
    O79    C45       1.43839      .   S
    O101   C59       1.44338      .   S
    C43    C45       1.52698      .   S
    C43    H8        1.10435      .   S
    C43    O77       1.44308      .   S
    C45    C47       1.53084      .   S
    Ca4    O87       2.29212      .   S
    Ca4    O97       2.32094      .   S
    H24    C59       1.10433      .   S
    C61    C59       1.52741      .   S
    C61    O103      1.43873      .   S
    C61    H26       1.10551      .   S
    C59    C57       1.54668      .   S
    O77    H12       0.98419      .   S
    O103   H30       1.01551      .   S
    C47    O83       1.27173  1_545   S
    C47    O81       1.26870      .   S
    O87    C49       1.26686      .   S
    C57    O97       1.26500      .   S
    C57    O99       1.26688      .   S
    O117   C71       1.26826      .   S
    O85    C49       1.26466      .   S
    O85    Ca2       2.31953  1_655   S
    C49    C51       1.54575      .   S
    H22    O91       1.01471      .   S
    O99    Ca2       2.29455      .   S
    H37    O113      0.98421      .   S
    O119   C71       1.28119      .   S
    C71    C69       1.53051      .   S
    H18    C53       1.10562      .   S
    O91    C53       1.43864      .   S
    O113   C67       1.44313      .   S
    C51    C53       1.52806      .   S
    C51    H16       1.10425      .   S
    C51    O89       1.44335      .   S
    C53    C55       1.53092      .   S
    Ca6    O74       2.29192      .   S
    Ca6    O109      2.32015      .   S
    H33    C67       1.10420      .   S
    C69    C67       1.52793      .   S
    C69    O115      1.43844      .   S
    C69    H35       1.10562      .   S
    C67    C65       1.54543      .   S
    O89    H20       0.98434      .   S
    O115   H39       1.01520      .   S
    C55    O95       1.29025  1_565   S
    C55    O92       1.26844      .   S
    O74    C40       1.26692      .   S
    C65    O109      1.26449  1_455   S
    C65    O111      1.26674      .   S
    O105   C62       1.26849      .   S
    O72    C40       1.26476      .   S
    O72    Ca32      2.32152      .   S
    C40    C42       1.54617      .   S
    H13    O78       1.01575      .   S
    O111   Ca32      2.28817      .   S
    H27    O100      0.98424      .   S
    O106   C62       1.28061      .   S
    C62    C60       1.53130      .   S
    H9     C44       1.10550      .   S
    O78    C44       1.43839      .   S
    O100   C58       1.44338      .   S
    C42    C44       1.52698      .   S
    C42    H7        1.10435      .   S
    C42    O76       1.44308      .   S
    C44    C46       1.53084      .   S
    Ca3    O86       2.29212      .   S
    Ca3    O96       2.32094      .   S
    H23    C58       1.10433      .   S
    C60    C58       1.52741      .   S
    C60    O102      1.43873      .   S
    C60    H25       1.10551      .   S
    C58    C56       1.54668      .   S
    O76    H11       0.98419      .   S
    O102   H29       1.01551      .   S
    C46    O82       1.27173  1_545   S
    C46    O80       1.26870      .   S
    O86    C48       1.26686      .   S
    C56    O96       1.26500      .   S
    C56    O98       1.26688      .   S
    O116   C70       1.26826      .   S
    O84    C48       1.26466      .   S
    O84    Ca1       2.31953  1_655   S
    C48    C50       1.54575      .   S
    H21    O90       1.01471      .   S
    O98    Ca1       2.29455      .   S
    H36    O112      0.98421      .   S
    O118   C70       1.28119      .   S
    C70    C68       1.53051      .   S
    H17    C52       1.10562      .   S
    O90    C52       1.43864      .   S
    O112   C66       1.44313      .   S
    C50    C52       1.52806      .   S
    C50    H15       1.10425      .   S
    C50    O88       1.44335      .   S
    C52    C54       1.53092      .   S
    Ca5    O94       2.40190      .   S
    Ca5    O108      2.32015      .   S
    H31    C66       1.10420      .   S
    C68    C66       1.52793      .   S
    C68    O114      1.43844      .   S
    C68    H34       1.10562      .   S
    C66    C64       1.54543      .   S
    O88    H19       0.98434      .   S
    O114   H38       1.01520      .   S
    C54    O94       1.29025  1_565   S
    C64    O108      1.26449  1_455   S
    O75    Ca5       2.70057  1_554   S
    O75    C43       1.77385      .   S
    O76    Ca32      2.40812      .   S
    O77    Ca0       2.40812      .   S
    O78    Ca3       2.48854  1_545   S
    O79    Ca4       2.48854  1_545   S
    O80    Ca5       2.43805      .   S
    O81    Ca6       2.43805      .   S
    O82    Ca3       2.39439      .   S
    O83    Ca4       2.39439      .   S
    O88    Ca1       2.41294  1_655   S
    O89    Ca2       2.41294  1_655   S
    O90    Ca5       2.51338  1_565   S
    O91    Ca6       2.51338  1_565   S
    O92    Ca3       2.43922      .   S
    O93    Ca4       2.43922      .   S
    O95    Ca6       2.40190      .   S
    O100   Ca3       2.40785      .   S
    O101   Ca4       2.40785      .   S
    O102   Ca32      2.49195      .   S
    O103   Ca0       2.49195      .   S
    O104   Ca1       2.43610      .   S
    O105   Ca2       2.43610      .   S
    O106   Ca32      2.40144      .   S
    O107   Ca0       2.40144      .   S
    O112   Ca5       2.41311  1_455   S
    O113   Ca6       2.41311  1_455   S
    O114   Ca1       2.50657      .   S
    O115   Ca2       2.50657      .   S
    O116   Ca32      2.43765      .   S
    O117   Ca0       2.43765      .   S
    O118   Ca1       2.39416      .   S
    O119   Ca2       2.39416      .   S
