# CIF file generated by openbabel 2.4.90, see http://openbabel.sf.net
data_I
_chemical_name_common ''
_cell_length_a 9.5345
_cell_length_b 11.0795
_cell_length_c 17.059
_cell_angle_alpha 90
_cell_angle_beta 90
_cell_angle_gamma 90.038
_space_group_name_H-M_alt 'P 1'
_space_group_name_Hall 'P 1'
loop_
    _symmetry_equiv_pos_as_xyz
    x,y,z
loop_
    _atom_site_label
    _atom_site_type_symbol
    _atom_site_fract_x
    _atom_site_fract_y
    _atom_site_fract_z
    _atom_site_occupancy
    Ca0     Ca   0.33400   0.34922   0.11335   1.000
    Ca1     Ca   0.16479   0.64909   0.86334   1.000
    Ca2     Ca   0.16479   0.64909   0.36333   1.000
    Ca3     Ca   0.66523   0.85026   0.63660   1.000
    Ca4     Ca   0.66523   0.85026   0.13659   1.000
    Ca5     Ca   0.83415   0.15003   0.88664   1.000
    Ca6     Ca   0.83415   0.15003   0.38663   1.000
    Ca7     Ca   0.33400   0.34922   0.61336   1.000
