# CIF file generated by openbabel 2.4.90, see http://openbabel.sf.net
data_I
_chemical_name_common ''
_cell_length_a 9.5345
_cell_length_b 11.0795
_cell_length_c 17.059
_cell_angle_alpha 90
_cell_angle_beta 90
_cell_angle_gamma 90.038
_space_group_name_H-M_alt 'P 1'
_space_group_name_Hall 'P 1'
loop_
    _symmetry_equiv_pos_as_xyz
    x,y,z
loop_
    _atom_site_label
    _atom_site_type_symbol
    _atom_site_fract_x
    _atom_site_fract_y
    _atom_site_fract_z
    _atom_site_occupancy
    N0      N    0.31429   0.69962   0.14047   1.000
    N1      N    0.18515   0.29805   0.39058   1.000
    N2      N    0.81409   0.79845   0.35932   1.000
    N3      N    0.68514   0.20044   0.11210   1.000
    N4      N    0.81409   0.79845   0.85933   1.000
    N5      N    0.68514   0.20044   0.60948   1.000
    N6      N    0.18515   0.29805   0.89060   1.000
    N7      N    0.31429   0.69962   0.64048   1.000
    Zr8     Zr   0.16479   0.64909   0.36333   1.000
    O9      O    0.21011   0.66615   0.44966   1.000
    O10     O    0.21895   0.67739   0.29806   1.000
    Zr11    Zr   0.33400   0.34922   0.11335   1.000
    O12     O    0.28900   0.33189   0.19973   1.000
    O13     O    0.28010   0.32078   0.04812   1.000
    Zr14    Zr   0.16479   0.64909   0.86334   1.000
    O15     O    0.21895   0.67739   0.79808   1.000
    O16     O    0.21011   0.66615   0.94967   1.000
    Zr17    Zr   0.33400   0.34922   0.61336   1.000
    O18     O    0.28010   0.32078   0.54813   1.000
    O19     O    0.28900   0.33189   0.69974   1.000
    Zr20    Zr   0.66523   0.85026   0.63660   1.000
    O21     O    0.71918   0.82162   0.70180   1.000
    O22     O    0.71031   0.83268   0.55022   1.000
    Zr23    Zr   0.83415   0.15003   0.88664   1.000
    O24     O    0.78019   0.17830   0.95718   1.000
    O25     O    0.78911   0.16713   0.80027   1.000
    Zr26    Zr   0.83415   0.15003   0.38663   1.000
    O27     O    0.78911   0.16713   0.30092   1.000
    O28     O    0.78019   0.17830   0.45189   1.000
    Zr29    Zr   0.66523   0.85026   0.13659   1.000
    O30     O    0.71031   0.83268   0.05021   1.000
    O31     O    0.71918   0.82162   0.20179   1.000
    O32     O    0.44665   0.30907   0.10967   1.000
    O33     O    0.32289   0.45924   0.11914   1.000
    O34     O    0.67629   0.96023   0.13148   1.000
    O35     O    0.55265   0.80949   0.14093   1.000
    O36     O    0.44665   0.30907   0.60902   1.000
    O37     O    0.32289   0.45924   0.61915   1.000
    O38     O    0.17592   0.53882   0.36914   1.000
    O39     O    0.94684   0.18980   0.39099   1.000
    O40     O    0.67629   0.96023   0.63083   1.000
    O41     O    0.55265   0.80949   0.64094   1.000
    O42     O    0.05220   0.68933   0.85896   1.000
    O43     O    0.17592   0.53882   0.86916   1.000
    O44     O    0.05220   0.68933   0.35894   1.000
    O45     O    0.82303   0.03958   0.88079   1.000
    O46     O    0.94684   0.18980   0.89101   1.000
    O47     O    0.82303   0.03958   0.38078   1.000
loop_
    _geom_bond_atom_site_label_1
    _geom_bond_atom_site_label_2
    _geom_bond_distance
    _geom_bond_site_symmetry_2
    _ccdc_geom_bond_type
    Zr8    O9        1.54646      .   S
    N7     O9        3.42335      .   S
    Zr8    O10       1.26665      .   S
    N0     O10       2.84856      .   S
    Zr11   O12       1.54669      .   S
    N1     O12       3.42355      .   S
    Zr11   O13       1.26537      .   S
    N6     O13       2.84675  1_556   S
    Zr14   O15       1.26666      .   S
    N7     O15       2.84858      .   S
    Zr14   O16       1.54635      .   S
    N0     O16       3.42304  1_554   S
    Zr17   O18       1.26552      .   S
    N1     O18       2.84704      .   S
    Zr17   O19       1.54669      .   S
    N6     O19       3.42355      .   S
    Zr20   O21       1.26598      .   S
    N4     O21       2.84718      .   S
    Zr20   O22       1.54733      .   S
    N2     O22       3.42470      .   S
    Zr23   O24       1.34566      .   S
    N3     O24       2.80475  1_554   S
    Zr23   O25       1.54637      .   S
    N5     O25       3.42242      .   S
    Zr26   O27       1.53564      .   S
    N3     O27       3.39031      .   S
    Zr26   O28       1.26589      .   S
    N5     O28       2.84752      .   S
    Zr29   O30       1.54723      .   S
    N4     O30       3.42438  1_556   S
    Zr29   O31       1.26599      .   S
    N2     O31       2.84720      .   S
    Zr11   O32       1.16454      .   S
    N3     O32       2.57380      .   S
    Zr11   O33       1.22755      .   S
    N0     O33       2.68935      .   S
    Zr29   O34       1.22600      .   S
    N3     O34       2.68308  1_545   S
    Zr29   O35       1.16662      .   S
    N0     O35       2.57751      .   S
    Zr17   O36       1.16520      .   S
    N5     O36       2.57347      .   S
    Zr17   O37       1.22755      .   S
    N7     O37       2.68934      .   S
    N1     O38       2.69410      .   S
    Zr8    O38       1.23036      .   S
    N1     O39       2.56856  1_455   S
    Zr26   O39       1.16342      .   S
    Zr20   O40       1.22685      .   S
    N5     O40       2.68745  1_545   S
    Zr20   O41       1.16662      .   S
    N7     O41       2.57751      .   S
    Zr14   O42       1.16502      .   S
    N4     O42       2.57287  1_655   S
    Zr14   O43       1.23036      .   S
    N6     O43       2.69410      .   S
    Zr8    O44       1.16502      .   S
    N2     O44       2.57287  1_655   S
    N4     O45       2.69792  1_565   S
    Zr23   O45       1.23226      .   S
    Zr23   O46       1.16342      .   S
    N6     O46       2.56856  1_455   S
    Zr26   O47       1.23226      .   S
    N2     O47       2.69792  1_565   S
