# CIF file generated by openbabel 2.4.90, see http://openbabel.sf.net
data_I
_chemical_name_common ''
_cell_length_a 9.5345
_cell_length_b 11.0795
_cell_length_c 17.059
_cell_angle_alpha 90
_cell_angle_beta 90
_cell_angle_gamma 90.038
_space_group_name_H-M_alt 'P 1'
_space_group_name_Hall 'P 1'
loop_
    _symmetry_equiv_pos_as_xyz
    x,y,z
loop_
    _atom_site_label
    _atom_site_type_symbol
    _atom_site_fract_x
    _atom_site_fract_y
    _atom_site_fract_z
    _atom_site_occupancy
    C0      C    0.33400   0.34922   0.61336   1.000
    C1      C    0.33400   0.34922   0.11335   1.000
    C2      C    0.16479   0.64909   0.86334   1.000
    C3      C    0.16479   0.64909   0.36333   1.000
    C4      C    0.66523   0.85026   0.63660   1.000
    C5      C    0.66523   0.85026   0.13659   1.000
    C6      C    0.83415   0.15003   0.88664   1.000
    C7      C    0.83415   0.15003   0.38663   1.000
    C8      C    0.76519   0.33686   0.61309   1.000
    C9      C    0.76519   0.33686   0.11308   1.000
    C10     C    0.82093   0.13677   0.57416   1.000
    C11     C    0.82093   0.13677   0.07414   1.000
    C12     C    0.60860   0.28443   0.71070   1.000
    C13     C    0.60860   0.28443   0.21069   1.000
    C14     C    0.63686   0.04141   0.53163   1.000
    C15     C    0.63686   0.04141   0.03161   1.000
    C16     C    0.73230   0.66252   0.86210   1.000
    C17     C    0.73230   0.66252   0.36208   1.000
    C18     C    0.67922   0.86296   0.82446   1.000
    C19     C    0.67922   0.86296   0.32445   1.000
    C20     C    0.88907   0.71203   0.96053   1.000
    C21     C    0.88907   0.71203   0.46052   1.000
    C22     C    0.86293   0.95753   0.78166   1.000
    C23     C    0.86293   0.95753   0.28165   1.000
    C24     C    0.23422   0.83587   0.63688   1.000
    C25     C    0.23422   0.83587   0.13686   1.000
    C26     C    0.17876   0.63584   0.67565   1.000
    C27     C    0.17876   0.63584   0.17563   1.000
    C28     C    0.39113   0.78393   0.53925   1.000
    C29     C    0.39113   0.78393   0.03924   1.000
    C30     C    0.36216   0.54066   0.71839   1.000
    C31     C    0.36216   0.54066   0.21838   1.000
    C32     C    0.26696   0.16214   0.88773   1.000
    C33     C    0.26696   0.16214   0.38772   1.000
    C34     C    0.32012   0.36269   0.92568   1.000
    C35     C    0.32012   0.36269   0.42567   1.000
    C36     C    0.11020   0.21183   0.78937   1.000
    C37     C    0.11020   0.21183   0.28936   1.000
    C38     C    0.13566   0.45673   0.96827   1.000
    C39     C    0.13566   0.45673   0.46826   1.000
    C40     C    0.61993   0.30200   0.51950   1.000
    C41     C    0.61993   0.30200   0.01948   1.000
    C42     C    0.67516   0.27606   0.60303   1.000
    C43     C    0.67516   0.27606   0.10301   1.000
    C44     C    0.72650   0.14616   0.61126   1.000
    C45     C    0.72650   0.14616   0.11124   1.000
    C46     C    0.77282   0.11065   0.69402   1.000
    C47     C    0.77282   0.11065   0.19401   1.000
    C48     C    0.87927   0.69741   0.76926   1.000
    C49     C    0.87927   0.69741   0.26925   1.000
    C50     C    0.82342   0.72239   0.85276   1.000
    C51     C    0.82342   0.72239   0.35275   1.000
    C52     C    0.77380   0.85283   0.86137   1.000
    C53     C    0.77380   0.85283   0.36136   1.000
    C54     C    0.72823   0.88871   0.94420   1.000
    C55     C    0.72823   0.88871   0.44419   1.000
    C56     C    0.37956   0.80140   0.73049   1.000
    C57     C    0.37956   0.80140   0.23047   1.000
    C58     C    0.32442   0.77533   0.64691   1.000
    C59     C    0.32442   0.77533   0.14690   1.000
    C60     C    0.27327   0.64528   0.63861   1.000
    C61     C    0.27327   0.64528   0.13860   1.000
    C62     C    0.22708   0.60946   0.55584   1.000
    C63     C    0.22708   0.60946   0.05583   1.000
    C64     C    0.12009   0.19698   0.98061   1.000
    C65     C    0.12009   0.19698   0.48060   1.000
    C66     C    0.17595   0.22200   0.89713   1.000
    C67     C    0.17595   0.22200   0.39711   1.000
    C68     C    0.22571   0.35246   0.88863   1.000
    C69     C    0.22571   0.35246   0.38862   1.000
    C70     C    0.27162   0.38835   0.80588   1.000
    C71     C    0.27162   0.38835   0.30586   1.000
    C72     C    0.49938   0.34867   0.51348   1.000
    C73     C    0.49938   0.34867   0.01347   1.000
    C74     C    0.70050   0.27534   0.46304   1.000
    C75     C    0.70050   0.27534   0.00000   1.000
    C76     C    0.56649   0.30245   0.65935   1.000
    C77     C    0.56649   0.30245   0.15933   1.000
    C78     C    0.62131   0.05936   0.58937   1.000
    C79     C    0.62131   0.05936   0.08935   1.000
    C80     C    0.77185   0.18600   0.75002   1.000
    C81     C    0.77185   0.18600   0.25000   1.000
    C82     C    0.80646   0.99998   0.70004   1.000
    C83     C    0.80646   0.99998   0.20002   1.000
    C84     C    1.00000   0.65110   0.76333   1.000
    C85     C    1.00000   0.65110   0.26331   1.000
    C86     C    0.79912   0.72474   0.71276   1.000
    C87     C    0.79912   0.72474   0.21275   1.000
    C88     C    0.93106   0.69354   0.90921   1.000
    C89     C    0.93106   0.69354   0.40920   1.000
    C90     C    0.87961   0.93891   0.83915   1.000
    C91     C    0.87961   0.93891   0.33914   1.000
    C92     C    0.72816   0.81326   0.50011   1.000
    C93     C    0.72816   0.81326   0.00010   1.000
    C94     C    0.69104   0.00033   0.94976   1.000
    C95     C    0.69104   0.00033   0.44975   1.000
    C96     C    0.49995   0.84856   0.73648   1.000
    C97     C    0.49995   0.84856   0.23647   1.000
    C98     C    0.29909   0.77443   0.78694   1.000
    C99     C    0.29909   0.77443   0.28692   1.000
    C100    C    0.43304   0.80226   0.59062   1.000
    C101    C    0.43304   0.80226   0.09061   1.000
    C102    C    0.37834   0.55857   0.66071   1.000
    C103    C    0.37834   0.55857   0.16070   1.000
    C104    C    0.22836   0.68455   0.99973   1.000
    C105    C    0.22836   0.68455   0.49971   1.000
    C106    C    0.19067   0.49852   0.55022   1.000
    C107    C    0.19067   0.49852   0.05020   1.000
    C108    C    0.99915   0.15100   0.98661   1.000
    C109    C    0.99915   0.15100   0.48659   1.000
    C110    C    0.20048   0.22407   0.03706   1.000
    C111    C    0.20048   0.22407   0.53705   1.000
    C112    C    0.06819   0.19337   0.84069   1.000
    C113    C    0.06819   0.19337   0.34068   1.000
    C114    C    0.11978   0.43840   0.91064   1.000
    C115    C    0.11978   0.43840   0.41063   1.000
    C116    C    0.27173   0.31295   0.74994   1.000
    C117    C    0.27173   0.31295   0.24993   1.000
    C118    C    0.30649   0.49969   0.80010   1.000
    C119    C    0.30649   0.49969   0.30008   1.000
    O120    O    0.66022   0.28867   0.00974   1.000
    O121    O    0.72820   0.85099   0.97215   1.000
    O122    O    0.55966   0.32533   0.01648   1.000
    O123    O    0.41669   0.34894   0.06341   1.000
    O124    O    0.64754   0.28903   0.06125   1.000
    O125    O    0.62908   0.05039   0.06048   1.000
    O126    O    0.26724   0.28665   0.07520   1.000
    O127    O    0.16028   0.21053   0.00884   1.000
    O128    O    0.41208   0.79309   0.06492   1.000
    O129    O    0.20887   0.55399   0.05302   1.000
    O130    O    0.25017   0.62737   0.09721   1.000
    O131    O    0.22772   0.64700   0.02778   1.000
    O132    O    0.77372   0.14146   0.09269   1.000
    O133    O    0.67390   0.10276   0.10030   1.000
    O134    O    0.37873   0.78880   0.11875   1.000
    O135    O    0.70083   0.21111   0.10713   1.000
    O136    O    0.72018   0.30646   0.10805   1.000
    O137    O    0.62082   0.28925   0.13117   1.000
    O138    O    0.74966   0.12840   0.15262   1.000
    O139    O    0.73218   0.78750   0.17467   1.000
    O140    O    0.58259   0.84941   0.18653   1.000
    O141    O    0.27932   0.80560   0.14188   1.000
    O142    O    0.29884   0.71031   0.14275   1.000
    O143    O    0.32581   0.60193   0.14965   1.000
    O144    O    0.22601   0.64056   0.15711   1.000
    O145    O    0.35199   0.78836   0.18868   1.000
    O146    O    0.58754   0.29344   0.18501   1.000
    O147    O    0.37025   0.54961   0.18954   1.000
    O148    O    0.78964   0.05532   0.19702   1.000
    O149    O    0.77233   0.14833   0.22201   1.000
    O150    O    0.83919   0.71108   0.24100   1.000
    O151    O    0.43975   0.82498   0.23347   1.000
    O152    O    0.33933   0.78791   0.25870   1.000
    O153    O    0.27167   0.35065   0.27789   1.000
    O154    O    0.93963   0.67426   0.26628   1.000
    O155    O    0.08239   0.65009   0.31332   1.000
    O156    O    0.85134   0.70990   0.31100   1.000
    O157    O    0.87127   0.94822   0.31039   1.000
    O158    O    0.23194   0.71176   0.32513   1.000
    O159    O    0.08920   0.20260   0.31502   1.000
    O160    O    0.28905   0.44402   0.30297   1.000
    O161    O    0.24867   0.37041   0.34724   1.000
    O162    O    0.72651   0.85790   0.34290   1.000
    O163    O    0.82670   0.89587   0.35025   1.000
    O164    O    0.12207   0.20768   0.36890   1.000
    O165    O    0.79861   0.78761   0.35705   1.000
    O166    O    0.77786   0.69246   0.35742   1.000
    O167    O    0.87724   0.70797   0.38097   1.000
    O168    O    0.75102   0.87077   0.40277   1.000
    O169    O    0.76733   0.21269   0.42484   1.000
    O170    O    0.91665   0.15052   0.43661   1.000
    O171    O    0.22145   0.19207   0.39242   1.000
    O172    O    0.20083   0.28723   0.39287   1.000
    O173    O    0.17275   0.39543   0.39962   1.000
    O174    O    0.27292   0.35758   0.40714   1.000
    O175    O    0.14802   0.20949   0.43886   1.000
    O176    O    0.91006   0.70278   0.43486   1.000
    O177    O    0.12772   0.44756   0.43944   1.000
    O178    O    0.70964   0.94452   0.44697   1.000
    O179    O    0.72820   0.85099   0.47215   1.000
    O180    O    0.66022   0.28867   0.49127   1.000
    O181    O    0.05962   0.17399   0.48360   1.000
    O182    O    0.16028   0.21053   0.50882   1.000
    O183    O    0.22772   0.64700   0.52778   1.000
    O184    O    0.55966   0.32533   0.51649   1.000
    O185    O    0.41669   0.34894   0.56342   1.000
    O186    O    0.64754   0.28903   0.56126   1.000
    O187    O    0.62908   0.05039   0.56050   1.000
    O188    O    0.26724   0.28665   0.57520   1.000
    O189    O    0.41208   0.79309   0.56494   1.000
    O190    O    0.20887   0.55399   0.55303   1.000
    O191    O    0.25017   0.62737   0.59723   1.000
    O192    O    0.77372   0.14146   0.59271   1.000
    O193    O    0.67390   0.10276   0.60031   1.000
    O194    O    0.37873   0.78879   0.61877   1.000
    O195    O    0.70083   0.21111   0.60714   1.000
    O196    O    0.72018   0.30646   0.60806   1.000
    O197    O    0.62082   0.28925   0.63119   1.000
    O198    O    0.74966   0.12840   0.65264   1.000
    O199    O    0.73218   0.78750   0.67468   1.000
    O200    O    0.58259   0.84941   0.68654   1.000
    O201    O    0.27932   0.80560   0.64189   1.000
    O202    O    0.29885   0.71031   0.64276   1.000
    O203    O    0.32581   0.60193   0.64966   1.000
    O204    O    0.22601   0.64056   0.65713   1.000
    O205    O    0.35199   0.78836   0.68870   1.000
    O206    O    0.58754   0.29344   0.68502   1.000
    O207    O    0.37025   0.54961   0.68955   1.000
    O208    O    0.78964   0.05532   0.69703   1.000
    O209    O    0.77233   0.14833   0.72202   1.000
    O210    O    0.83919   0.71108   0.74101   1.000
    O211    O    0.43975   0.82498   0.73348   1.000
    O212    O    0.33933   0.78791   0.75871   1.000
    O213    O    0.27167   0.35065   0.77791   1.000
    O214    O    0.93963   0.67426   0.76629   1.000
    O215    O    0.08239   0.65009   0.81333   1.000
    O216    O    0.85134   0.70990   0.81101   1.000
    O217    O    0.87127   0.94822   0.81041   1.000
    O218    O    0.23194   0.71176   0.82514   1.000
    O219    O    0.08920   0.20260   0.81503   1.000
    O220    O    0.28905   0.44402   0.80299   1.000
    O221    O    0.24867   0.37041   0.84726   1.000
    O222    O    0.72651   0.85790   0.84292   1.000
    O223    O    0.82670   0.89587   0.85026   1.000
    O224    O    0.12207   0.20768   0.86891   1.000
    O225    O    0.79861   0.78761   0.85707   1.000
    O226    O    0.77786   0.69246   0.85743   1.000
    O227    O    0.87724   0.70797   0.88099   1.000
    O228    O    0.75102   0.87077   0.90279   1.000
    O229    O    0.76259   0.07518   0.91820   1.000
    O230    O    0.91665   0.15052   0.93663   1.000
    O231    O    0.22145   0.19207   0.89243   1.000
    O232    O    0.20083   0.28723   0.89288   1.000
    O233    O    0.17274   0.39543   0.89964   1.000
    O234    O    0.27292   0.35758   0.90716   1.000
    O235    O    0.14802   0.20949   0.93887   1.000
    O236    O    0.91006   0.70278   0.93487   1.000
    O237    O    0.12772   0.44756   0.93946   1.000
    O238    O    0.70964   0.94452   0.94698   1.000
    O239    O    0.05962   0.17399   0.98361   1.000
    O240    O    0.76733   0.21269   0.94332   1.000
    O241    O    0.68783   0.27570   0.05151   1.000
    O242    O    0.45024   0.32584   0.63635   1.000
    O243    O    0.45024   0.32584   0.13634   1.000
    O244    O    0.64327   0.95481   0.61299   1.000
    O245    O    0.64327   0.95481   0.11297   1.000
    O246    O    0.80300   0.16802   0.81833   1.000
    O247    O    0.80300   0.16802   0.31832   1.000
    O248    O    0.73585   0.92512   0.66832   1.000
    O249    O    0.73585   0.92512   0.16831   1.000
    O250    O    0.04792   0.67131   0.88628   1.000
    O251    O    0.04792   0.67131   0.38626   1.000
    O252    O    0.85688   0.04447   0.86290   1.000
    O253    O    0.85688   0.04447   0.36288   1.000
    O254    O    0.69670   0.83176   0.56836   1.000
    O255    O    0.69670   0.83176   0.06834   1.000
    O256    O    0.76259   0.07518   0.41819   1.000
    O257    O    0.54913   0.82626   0.61361   1.000
    O258    O    0.54913   0.82626   0.11360   1.000
    O259    O    0.35617   0.45390   0.63704   1.000
    O260    O    0.35617   0.45389   0.13702   1.000
    O261    O    0.19657   0.66682   0.93154   1.000
    O262    O    0.19657   0.66682   0.43152   1.000
    O263    O    0.26234   0.42387   0.58179   1.000
    O264    O    0.26234   0.42387   0.08177   1.000
    O265    O    0.95117   0.17170   0.86367   1.000
    O266    O    0.95117   0.17170   0.36365   1.000
    O267    O    0.14228   0.54374   0.88699   1.000
    O268    O    0.14228   0.54374   0.38698   1.000
    O269    O    0.30287   0.33109   0.68165   1.000
    O270    O    0.30287   0.33109   0.18164   1.000
    O271    O    0.23564   0.57439   0.83172   1.000
    O272    O    0.23564   0.57439   0.33170   1.000
loop_
    _geom_bond_atom_site_label_1
    _geom_bond_atom_site_label_2
    _geom_bond_distance
    _geom_bond_site_symmetry_2
    _ccdc_geom_bond_type
    C75    O120      0.44388      .   S
    C41    O120      0.44388      .   S
    C93    O121      0.63404  1_554   S
    C54    O121      0.63404      .   S
    C73    O122      0.63238      .   S
    C41    O122      0.63238      .   S
    C73    O123      1.16076      .   S
    C1     O123      1.16076      .   S
    C41    O124      0.77308      .   S
    C43    O124      0.77308      .   S
    C15    O125      0.50788      .   S
    C79    O125      0.50788      .   S
    C110   O126      1.14395      .   S
    C1     O126      1.14395      .   S
    C110   O127      0.63337      .   S
    C64    O127      0.63337  1_556   S
    C29    O128      0.49213      .   S
    C101   O128      0.49213      .   S
    C107   O129      0.64031      .   S
    C63    O129      0.64031      .   S
    C63    O130      0.76565      .   S
    C61    O130      0.76565      .   S
    C63    O131      0.63407      .   S
    C104   O131      0.63407  1_556   S
    C11    O132      0.55275      .   S
    C45    O132      0.55275      .   S
    C79    O133      0.71919      .   S
    C45    O133      0.71919      .   S
    C101   O134      0.72169      .   S
    C59    O134      0.72169      .   S
    C43    O135      0.76349      .   S
    C45    O135      0.76349      .   S
    C43    O136      0.55217      .   S
    C9     O136      0.55217      .   S
    C43    O137      0.72154      .   S
    C77    O137      0.72154      .   S
    C45    O138      0.76542      .   S
    C47    O138      0.76542      .   S
    C5     O139      1.14606      .   S
    C87    O139      1.14606      .   S
    C5     O140      1.16047      .   S
    C97    O140      1.16047      .   S
    C25    O141      0.55217      .   S
    C59    O141      0.55217      .   S
    C61    O142      0.76371      .   S
    C59    O142      0.76371      .   S
    C61    O143      0.71936      .   S
    C103   O143      0.71936      .   S
    C61    O144      0.55276      .   S
    C27    O144      0.55276      .   S
    C59    O145      0.77334      .   S
    C57    O145      0.77334      .   S
    C77    O146      0.49209      .   S
    C13    O146      0.49209      .   S
    C103   O147      0.50775      .   S
    C31    O147      0.50775      .   S
    C47    O148      0.63586      .   S
    C83    O148      0.63586  1_565   S
    C47    O149      0.63435      .   S
    C81    O149      0.63435      .   S
    C87    O150      0.63343      .   S
    C49    O150      0.63343      .   S
    C57    O151      0.63250      .   S
    C97    O151      0.63250      .   S
    C57    O152      0.63344      .   S
    C99    O152      0.63344      .   S
    C117   O153      0.63413      .   S
    C71    O153      0.63413      .   S
    C85    O154      0.63233      .   S
    C49    O154      0.63233      .   S
    C85    O155      1.15976  1_655   S
    C3     O155      1.15976      .   S
    C49    O156      0.77288      .   S
    C51    O156      0.77288      .   S
    C23    O157      0.50735      .   S
    C91    O157      0.50735      .   S
    C99    O158      1.14727      .   S
    C3     O158      1.14727      .   S
    C37    O159      0.49210      .   S
    C113   O159      0.49210      .   S
    C119   O160      0.64060      .   S
    C71    O160      0.64060      .   S
    C71    O161      0.76526      .   S
    C69    O161      0.76526      .   S
    C19    O162      0.55281      .   S
    C53    O162      0.55281      .   S
    C91    O163      0.71932      .   S
    C53    O163      0.71932      .   S
    C113   O164      0.72156      .   S
    C67    O164      0.72156      .   S
    C51    O165      0.76403      .   S
    C53    O165      0.76403      .   S
    C51    O166      0.55212      .   S
    C17    O166      0.55212      .   S
    C51    O167      0.72167      .   S
    C89    O167      0.72167      .   S
    C53    O168      0.76546      .   S
    C55    O168      0.76546      .   S
    C7     O169      1.14596      .   S
    C74    O169      1.14596      .   S
    C7     O170      1.16007      .   S
    C109   O170      1.16007      .   S
    C33    O171      0.55210      .   S
    C67    O171      0.55210      .   S
    C69    O172      0.76397      .   S
    C67    O172      0.76397      .   S
    C69    O173      0.71922      .   S
    C115   O173      0.71922      .   S
    C69    O174      0.55281      .   S
    C35    O174      0.55281      .   S
    C67    O175      0.77272      .   S
    C65    O175      0.77272      .   S
    C89    O176      0.49217      .   S
    C21    O176      0.49217      .   S
    C115   O177      0.50760      .   S
    C39    O177      0.50760      .   S
    C55    O178      0.64513      .   S
    C95    O178      0.64513  1_545   S
    C55    O179      0.63422      .   S
    C92    O179      0.63422      .   S
    C74    O180      0.63346      .   S
    C40    O180      0.63346      .   S
    C65    O181      0.63224      .   S
    C109   O181      0.63224  1_655   S
    C65    O182      0.63337      .   S
    C111   O182      0.63337      .   S
    C105   O183      0.63425      .   S
    C62    O183      0.63425      .   S
    C72    O184      0.63238      .   S
    C40    O184      0.63238      .   S
    C72    O185      1.16076      .   S
    C0     O185      1.16076      .   S
    C40    O186      0.77308      .   S
    C42    O186      0.77308      .   S
    C14    O187      0.50788      .   S
    C78    O187      0.50788      .   S
    C111   O188      1.14409      .   S
    C0     O188      1.14409      .   S
    C28    O189      0.49212      .   S
    C100   O189      0.49212      .   S
    C106   O190      0.64031      .   S
    C62    O190      0.64031      .   S
    C62    O191      0.76565      .   S
    C60    O191      0.76565      .   S
    C10    O192      0.55275      .   S
    C44    O192      0.55275      .   S
    C78    O193      0.71919      .   S
    C44    O193      0.71919      .   S
    C100   O194      0.72169      .   S
    C58    O194      0.72169      .   S
    C42    O195      0.76349      .   S
    C44    O195      0.76349      .   S
    C42    O196      0.55217      .   S
    C8     O196      0.55217      .   S
    C42    O197      0.72154      .   S
    C76    O197      0.72154      .   S
    C44    O198      0.76542      .   S
    C46    O198      0.76542      .   S
    C4     O199      1.14606      .   S
    C86    O199      1.14606      .   S
    C4     O200      1.16047      .   S
    C96    O200      1.16047      .   S
    C24    O201      0.55217      .   S
    C58    O201      0.55217      .   S
    C60    O202      0.76371      .   S
    C58    O202      0.76371      .   S
    C60    O203      0.71936      .   S
    C102   O203      0.71936      .   S
    C60    O204      0.55276      .   S
    C26    O204      0.55276      .   S
    C58    O205      0.77334      .   S
    C56    O205      0.77334      .   S
    C76    O206      0.49209      .   S
    C12    O206      0.49209      .   S
    C102   O207      0.50775      .   S
    C30    O207      0.50775      .   S
    C46    O208      0.63586      .   S
    C82    O208      0.63586  1_565   S
    C46    O209      0.63435      .   S
    C80    O209      0.63435      .   S
    C86    O210      0.63343      .   S
    C48    O210      0.63343      .   S
    C56    O211      0.63250      .   S
    C96    O211      0.63250      .   S
    C56    O212      0.63344      .   S
    C98    O212      0.63344      .   S
    C116   O213      0.63413      .   S
    C70    O213      0.63413      .   S
    C84    O214      0.63233      .   S
    C48    O214      0.63233      .   S
    C84    O215      1.15976  1_655   S
    C2     O215      1.15976      .   S
    C48    O216      0.77288      .   S
    C50    O216      0.77288      .   S
    C22    O217      0.50735      .   S
    C90    O217      0.50735      .   S
    C98    O218      1.14727      .   S
    C2     O218      1.14727      .   S
    C36    O219      0.49210      .   S
    C112   O219      0.49210      .   S
    C118   O220      0.64060      .   S
    C70    O220      0.64060      .   S
    C70    O221      0.76526      .   S
    C68    O221      0.76526      .   S
    C18    O222      0.55281      .   S
    C52    O222      0.55281      .   S
    C90    O223      0.71932      .   S
    C52    O223      0.71932      .   S
    C112   O224      0.72156      .   S
    C66    O224      0.72156      .   S
    C50    O225      0.76403      .   S
    C52    O225      0.76403      .   S
    C50    O226      0.55212      .   S
    C16    O226      0.55212      .   S
    C50    O227      0.72167      .   S
    C88    O227      0.72167      .   S
    C52    O228      0.76546      .   S
    C54    O228      0.76546      .   S
    C6     O229      1.20095      .   S
    C94    O229      1.20095      .   S
    C6     O230      1.16007      .   S
    C108   O230      1.16007      .   S
    C32    O231      0.55210      .   S
    C66    O231      0.55210      .   S
    C68    O232      0.76397      .   S
    C66    O232      0.76397      .   S
    C68    O233      0.71922      .   S
    C114   O233      0.71922      .   S
    C68    O234      0.55281      .   S
    C34    O234      0.55281      .   S
    C66    O235      0.77272      .   S
    C64    O235      0.77272      .   S
    C88    O236      0.49217      .   S
    C20    O236      0.49217      .   S
    C114   O237      0.50760      .   S
    C38    O237      0.50760      .   S
    C54    O238      0.64513      .   S
    C94    O238      0.64513  1_545   S
    C64    O239      0.63224      .   S
    C108   O239      0.63224  1_655   S
    C75    O240      1.35029  1_554   S
    C6     O240      1.35029      .   S
    C75    O241      0.88693      .   S
    C43    O241      0.88693      .   S
    C76    O242      1.20406      .   S
    C0     O242      1.20406      .   S
    C77    O243      1.20406      .   S
    C1     O243      1.20406      .   S
    C78    O244      1.24427  1_545   S
    C4     O244      1.24427      .   S
    C79    O245      1.24427  1_545   S
    C5     O245      1.24427      .   S
    C80    O246      1.21903      .   S
    C6     O246      1.21903      .   S
    C81    O247      1.21903      .   S
    C7     O247      1.21903      .   S
    C82    O248      1.19719      .   S
    C4     O248      1.19719      .   S
    C83    O249      1.19719      .   S
    C5     O249      1.19719      .   S
    C88    O250      1.20647  1_655   S
    C2     O250      1.20647      .   S
    C89    O251      1.20647  1_655   S
    C3     O251      1.20647      .   S
    C90    O252      1.25669  1_565   S
    C6     O252      1.25669      .   S
    C91    O253      1.25669  1_565   S
    C7     O253      1.25669      .   S
    C92    O254      1.21961      .   S
    C4     O254      1.21961      .   S
    C93    O255      1.21961      .   S
    C5     O255      1.21961      .   S
    C95    O256      1.20095      .   S
    C7     O256      1.20095      .   S
    C100   O257      1.20393      .   S
    C4     O257      1.20393      .   S
    C101   O258      1.20393      .   S
    C5     O258      1.20393      .   S
    C102   O259      1.24597      .   S
    C0     O259      1.24597      .   S
    C103   O260      1.24597      .   S
    C1     O260      1.24597      .   S
    C104   O261      1.21805      .   S
    C2     O261      1.21805      .   S
    C105   O262      1.21805      .   S
    C3     O262      1.21805      .   S
    C106   O263      1.20072      .   S
    C0     O263      1.20072      .   S
    C107   O264      1.20072      .   S
    C1     O264      1.20072      .   S
    C112   O265      1.20656  1_455   S
    C6     O265      1.20656      .   S
    C113   O266      1.20656  1_455   S
    C7     O266      1.20656      .   S
    C114   O267      1.25328      .   S
    C2     O267      1.25328      .   S
    C115   O268      1.25328      .   S
    C3     O268      1.25328      .   S
    C116   O269      1.21883      .   S
    C0     O269      1.21883      .   S
    C117   O270      1.21883      .   S
    C1     O270      1.21883      .   S
    C118   O271      1.19708      .   S
    C2     O271      1.19708      .   S
    C119   O272      1.19708      .   S
    C3     O272      1.19708      .   S
