# CIF file generated by openbabel 2.4.90, see http://openbabel.sf.net
data_I
_chemical_name_common ''
_cell_length_a 9.5345
_cell_length_b 11.0795
_cell_length_c 17.059
_cell_angle_alpha 90
_cell_angle_beta 90
_cell_angle_gamma 90.038
_space_group_name_H-M_alt 'P 1'
_space_group_name_Hall 'P 1'
loop_
    _symmetry_equiv_pos_as_xyz
    x,y,z
loop_
    _atom_site_label
    _atom_site_type_symbol
    _atom_site_fract_x
    _atom_site_fract_y
    _atom_site_fract_z
    _atom_site_occupancy
    Zr0     Zr   0.33400   0.34922   0.61336   1.000
    Zr1     Zr   0.33400   0.34922   0.11335   1.000
    Zr2     Zr   0.16479   0.64909   0.86334   1.000
    Zr3     Zr   0.16479   0.64909   0.36333   1.000
    Zr4     Zr   0.66523   0.85026   0.63660   1.000
    Zr5     Zr   0.66523   0.85026   0.13659   1.000
    Zr6     Zr   0.83415   0.15003   0.88664   1.000
    Zr7     Zr   0.83415   0.15003   0.38663   1.000
    N8      N    0.31429   0.69962   0.14047   1.000
    O9      O    0.44844   0.77451   0.16350   1.000
    O10     O    0.43171   0.76294   0.12703   1.000
    O11     O    0.33523   0.57676   0.13874   1.000
    O12     O    0.25543   0.68322   0.03600   1.000
    O13     O    0.27311   0.70569   0.23280   1.000
    O14     O    0.28831   0.56174   0.11112   1.000
    N15     N    0.18515   0.29805   0.39058   1.000
    O16     O    0.06816   0.23487   0.37712   1.000
    O17     O    0.16372   0.42090   0.38878   1.000
    O18     O    0.24401   0.31457   0.28611   1.000
    O19     O    0.21039   0.43622   0.36114   1.000
    O20     O    0.05090   0.22428   0.41360   1.000
    O21     O    0.22620   0.29235   0.48289   1.000
    N22     N    0.81409   0.79845   0.35932   1.000
    O23     O    0.78834   0.93682   0.38875   1.000
    O24     O    0.94824   0.72427   0.33632   1.000
    O25     O    0.77313   0.79298   0.26699   1.000
    O26     O    0.93101   0.73488   0.37279   1.000
    O27     O    0.83548   0.92146   0.36110   1.000
    O28     O    0.75539   0.81510   0.46384   1.000
    N29     N    0.68514   0.20044   0.11210   1.000
    O30     O    0.66421   0.07762   0.11254   1.000
    O31     O    0.74407   0.18423   0.21521   1.000
    O32     O    0.55092   0.27469   0.08776   1.000
    O33     O    0.72623   0.20656   0.02771   1.000
    O34     O    0.56769   0.26314   0.12422   1.000
    O35     O    0.71049   0.06278   0.14020   1.000
    N36     N    0.81409   0.79845   0.85933   1.000
    O37     O    0.75539   0.81510   0.96384   1.000
    O38     O    0.78834   0.93682   0.88877   1.000
    O39     O    0.77313   0.79298   0.76701   1.000
    O40     O    0.93101   0.73488   0.87280   1.000
    O41     O    0.94824   0.72427   0.83633   1.000
    O42     O    0.83548   0.92146   0.86111   1.000
    N43     N    0.68514   0.20044   0.60948   1.000
    O44     O    0.66421   0.07762   0.61123   1.000
    O45     O    0.74407   0.18423   0.71390   1.000
    O46     O    0.55092   0.27469   0.58645   1.000
    O47     O    0.72623   0.20656   0.51716   1.000
    O48     O    0.56769   0.26314   0.62292   1.000
    O49     O    0.71049   0.06278   0.63890   1.000
    N50     N    0.18515   0.29805   0.89060   1.000
    O51     O    0.06816   0.23487   0.87713   1.000
    O52     O    0.16372   0.42090   0.88879   1.000
    O53     O    0.24401   0.31457   0.78612   1.000
    O54     O    0.21039   0.43622   0.86116   1.000
    O55     O    0.05090   0.22428   0.91361   1.000
    O56     O    0.22620   0.29235   0.98290   1.000
    N57     N    0.31429   0.69962   0.64048   1.000
    O58     O    0.44844   0.77451   0.66351   1.000
    O59     O    0.43171   0.76294   0.62704   1.000
    O60     O    0.33523   0.57676   0.63876   1.000
    O61     O    0.25543   0.68322   0.53600   1.000
    O62     O    0.27311   0.70569   0.73281   1.000
    O63     O    0.28831   0.56174   0.61113   1.000
loop_
    _geom_bond_atom_site_label_1
    _geom_bond_atom_site_label_2
    _geom_bond_distance
    _geom_bond_site_symmetry_2
    _ccdc_geom_bond_type
    N8     O9        1.57401      .   S
    Zr5    O9        2.27712      .   S
    N8     O10       1.34057      .   S
    Zr5    O10       2.43250      .   S
    N8     O11       1.37625      .   S
    Zr1    O11       2.55795      .   S
    N8     O12       1.87713      .   S
    Zr2    O12       3.09270  1_556   S
    N8     O13       1.62465      .   S
    Zr3    O13       2.53330      .   S
    N8     O14       1.62633      .   S
    Zr1    O14       2.39517      .   S
    N15    O16       1.33636      .   S
    Zr7    O16       2.42597  1_655   S
    N15    O17       1.37683      .   S
    Zr3    O17       2.56526      .   S
    N15    O18       1.87737      .   S
    Zr1    O18       3.09337      .   S
    N15    O19       1.62886      .   S
    Zr3    O19       2.39879      .   S
    N15    O20       1.56817      .   S
    Zr7    O20       2.27091  1_655   S
    N15    O21       1.62387      .   S
    Zr0    O21       2.53105      .   S
    N22    O23       1.63189      .   S
    Zr7    O23       2.40236  1_545   S
    N22    O24       1.57061      .   S
    Zr3    O24       2.27405  1_455   S
    N22    O25       1.62381      .   S
    Zr5    O25       2.53197      .   S
    N22    O26       1.33887      .   S
    Zr3    O26       2.42915  1_455   S
    N22    O27       1.37829      .   S
    Zr7    O27       2.56967  1_545   S
    N22    O28       1.87787      .   S
    Zr4    O28       3.09467      .   S
    N29    O30       1.37518      .   S
    Zr5    O30       2.55227  1_565   S
    N29    O31       1.85520      .   S
    Zr7    O31       3.07128      .   S
    N29    O32       1.57751      .   S
    Zr1    O32       2.26983      .   S
    N29    O33       1.49352      .   S
    Zr6    O33       2.69131  1_556   S
    N29    O34       1.33429      .   S
    Zr1    O34       2.43137      .   S
    N29    O35       1.61706      .   S
    Zr5    O35       2.39433  1_565   S
    N36    O37       1.87766      .   S
    Zr5    O37       3.09446  1_554   S
    N36    O38       1.63189      .   S
    Zr6    O38       2.40236  1_545   S
    N36    O39       1.62379      .   S
    Zr4    O39       2.53196      .   S
    N36    O40       1.33887      .   S
    Zr2    O40       2.42915  1_455   S
    N36    O41       1.57061      .   S
    Zr2    O41       2.27405  1_455   S
    N36    O42       1.37829      .   S
    Zr6    O42       2.56968  1_545   S
    N43    O44       1.37548      .   S
    Zr4    O44       2.55599  1_565   S
    N43    O45       1.87657      .   S
    Zr6    O45       3.09273      .   S
    N43    O46       1.57173      .   S
    Zr0    O46       2.27427      .   S
    N43    O47       1.62431      .   S
    Zr7    O47       2.53178      .   S
    N43    O48       1.33796      .   S
    Zr0    O48       2.42975      .   S
    N43    O49       1.62388      .   S
    Zr4    O49       2.39386  1_565   S
    N50    O51       1.33636      .   S
    Zr6    O51       2.42597  1_655   S
    N50    O52       1.37683      .   S
    Zr2    O52       2.56526      .   S
    N50    O53       1.87737      .   S
    Zr0    O53       3.09337      .   S
    N50    O54       1.62886      .   S
    Zr2    O54       2.39879      .   S
    N50    O55       1.56817      .   S
    Zr6    O55       2.27091  1_655   S
    N50    O56       1.62376      .   S
    Zr1    O56       2.53073  1_554   S
    N57    O58       1.57402      .   S
    Zr4    O58       2.27712      .   S
    N57    O59       1.34057      .   S
    Zr4    O59       2.43250      .   S
    N57    O60       1.37625      .   S
    Zr0    O60       2.55794      .   S
    N57    O61       1.87734      .   S
    Zr3    O61       3.09291      .   S
    N57    O62       1.62466      .   S
    Zr2    O62       2.53331      .   S
    N57    O63       1.62633      .   S
    Zr0    O63       2.39517      .   S
