# CIF file generated by openbabel 2.4.90, see http://openbabel.sf.net
data_I
_chemical_name_common ''
_cell_length_a 14.357
_cell_length_b 15.243
_cell_length_c 16.405
_cell_angle_alpha 89.997
_cell_angle_beta 90.004
_cell_angle_gamma 97.449
_space_group_name_H-M_alt 'P 1'
_space_group_name_Hall 'P 1'
loop_
    _symmetry_equiv_pos_as_xyz
    x,y,z
loop_
    _atom_site_label
    _atom_site_type_symbol
    _atom_site_fract_x
    _atom_site_fract_y
    _atom_site_fract_z
    _atom_site_occupancy
    Zr0     Zr   0.09781   0.66242   0.49335   1.000
    Zr1     Zr   0.59772   0.66241   0.49300   1.000
    Zr2     Zr   0.09349   0.47796   0.37500   1.000
    Zr3     Zr   0.59355   0.47794   0.37499   1.000
    Zr4     Zr   0.15245   0.83769   0.99328   1.000
    Zr5     Zr   0.65245   0.83763   0.99332   1.000
    Zr6     Zr   0.15664   0.02215   0.87503   1.000
    Zr7     Zr   0.65669   0.02212   0.87502   1.000
    Zr8     Zr   0.40229   0.33759   0.50659   1.000
    Zr9     Zr   0.90220   0.33758   0.50664   1.000
    Zr10    Zr   0.40645   0.52205   0.62500   1.000
    Zr11    Zr   0.90652   0.52204   0.62499   1.000
    Zr12    Zr   0.34756   0.16238   0.00666   1.000
    Zr13    Zr   0.84756   0.16231   0.00671   1.000
    Zr14    Zr   0.34332   0.97788   0.12496   1.000
    Zr15    Zr   0.84337   0.97784   0.12495   1.000
    Zr16    Zr   0.24998   0.50000   0.50000   1.000
    Zr17    Zr   0.75003   0.50000   0.49999   1.000
    Zr18    Zr   0.00000   0.00000   0.99999   1.000
    Zr19    Zr   0.50000   0.00000   0.99999   1.000
    N20     N    0.12561   0.20379   0.28263   1.000
    O21     O    0.22335   0.18745   0.17254   1.000
    O22     O    0.00881   0.10782   0.22108   1.000
    O23     O    0.23678   0.25770   0.37748   1.000
    O24     O    0.20575   0.10663   0.21068   1.000
    O25     O    0.03271   0.24588   0.38255   1.000
    O26     O    0.07466   0.12324   0.16476   1.000
    O27     O    0.17677   0.32598   0.36978   1.000
    N28     N    0.87606   0.70398   0.21730   1.000
    O29     O    0.95619   0.60685   0.28927   1.000
    O30     O    0.75909   0.60825   0.27894   1.000
    O31     O    0.78315   0.74597   0.11731   1.000
    O32     O    0.92697   0.82596   0.12999   1.000
    O33     O    0.97381   0.68767   0.32742   1.000
    O34     O    0.82502   0.62336   0.33524   1.000
    O35     O    0.98720   0.75780   0.12244   1.000
    N36     N    0.37433   0.79640   0.71729   1.000
    O37     O    0.29420   0.89351   0.78927   1.000
    O38     O    0.27657   0.81271   0.82736   1.000
    O39     O    0.42531   0.87687   0.83518   1.000
    O40     O    0.32315   0.67411   0.63021   1.000
    O41     O    0.49117   0.89230   0.77885   1.000
    O42     O    0.26321   0.74242   0.62245   1.000
    O43     O    0.46733   0.75430   0.61732   1.000
    N44     N    0.37589   0.70390   0.21727   1.000
    O45     O    0.47351   0.68758   0.32738   1.000
    O46     O    0.45607   0.60673   0.28923   1.000
    O47     O    0.28316   0.74603   0.11721   1.000
    O48     O    0.42686   0.82592   0.13000   1.000
    O49     O    0.32486   0.62332   0.33520   1.000
    O50     O    0.25896   0.60816   0.27889   1.000
    O51     O    0.48710   0.75775   0.12244   1.000
    N52     N    0.62568   0.20359   0.28269   1.000
    O53     O    0.67686   0.32589   0.36977   1.000
    O54     O    0.72344   0.18729   0.17262   1.000
    O55     O    0.50884   0.10769   0.22112   1.000
    O56     O    0.53268   0.24569   0.38256   1.000
    O57     O    0.70581   0.10648   0.21071   1.000
    O58     O    0.73679   0.25758   0.37753   1.000
    O59     O    0.57470   0.12312   0.16480   1.000
    N60     N    0.65331   0.98323   0.01283   1.000
    O61     O    0.64900   0.94296   0.00215   1.000
    O62     O    0.65006   0.98908   0.97257   1.000
    O63     O    0.61089   0.98355   0.00382   1.000
    N64     N    0.62412   0.29610   0.78270   1.000
    O65     O    0.54394   0.39327   0.71074   1.000
    O66     O    0.71685   0.25398   0.88276   1.000
    O67     O    0.67515   0.37668   0.66478   1.000
    O68     O    0.57314   0.17408   0.86995   1.000
    O69     O    0.74105   0.39185   0.72109   1.000
    O70     O    0.51292   0.24226   0.87754   1.000
    O71     O    0.52651   0.31243   0.67250   1.000
    N72     N    0.12395   0.29602   0.78268   1.000
    O73     O    0.24092   0.39174   0.72104   1.000
    O74     O    0.01281   0.24220   0.87754   1.000
    O75     O    0.02620   0.31232   0.67257   1.000
    O76     O    0.07303   0.17403   0.86998   1.000
    O77     O    0.04382   0.39314   0.71071   1.000
    O78     O    0.21686   0.25403   0.88267   1.000
    O79     O    0.17499   0.37664   0.66475   1.000
    N80     N    0.90322   0.48316   0.48711   1.000
    O81     O    0.89887   0.44289   0.49779   1.000
    O82     O    0.89995   0.48901   0.52738   1.000
    O83     O    0.86083   0.48350   0.49613   1.000
    N84     N    0.87440   0.79621   0.71735   1.000
    O85     O    0.77666   0.81256   0.82744   1.000
    O86     O    0.92535   0.87676   0.83522   1.000
    O87     O    0.99120   0.89218   0.77888   1.000
    O88     O    0.79426   0.89338   0.78930   1.000
    O89     O    0.82325   0.67402   0.63020   1.000
    O90     O    0.96730   0.75412   0.61741   1.000
    O91     O    0.76323   0.74230   0.62240   1.000
    N92     N    0.40319   0.48319   0.48712   1.000
    O93     O    0.39886   0.44291   0.49779   1.000
    O94     O    0.39990   0.48903   0.52739   1.000
    O95     O    0.36079   0.48352   0.49614   1.000
    N96     N    0.34670   0.01678   0.98712   1.000
    O97     O    0.35101   0.05705   0.99780   1.000
    O98     O    0.34995   0.01092   0.02738   1.000
    O99     O    0.38912   0.01646   0.99613   1.000
    N100    N    0.15331   0.98327   0.01285   1.000
    O101    O    0.15005   0.98912   0.97259   1.000
    O102    O    0.11089   0.98358   0.00383   1.000
    O103    O    0.14900   0.94301   0.00215   1.000
    N104    N    0.59682   0.51681   0.51287   1.000
    O105    O    0.63922   0.51648   0.50385   1.000
    O106    O    0.60114   0.55708   0.50210   1.000
    O107    O    0.60010   0.51097   0.47260   1.000
    N108    N    0.84670   0.01673   0.98713   1.000
    O109    O    0.85101   0.05699   0.99783   1.000
    O110    O    0.84996   0.01088   0.02739   1.000
    O111    O    0.88912   0.01642   0.99615   1.000
    N112    N    0.09679   0.51683   0.51284   1.000
    O113    O    0.10114   0.55710   0.50217   1.000
    O114    O    0.10006   0.51099   0.47258   1.000
    O115    O    0.13918   0.51650   0.50384   1.000
    O116    O    0.11260   0.31683   0.33625   1.000
    O117    O    0.61272   0.31670   0.33628   1.000
    O118    O    0.86279   0.81682   0.16360   1.000
    O119    O    0.36266   0.81679   0.16362   1.000
    O120    O    0.63735   0.18320   0.83634   1.000
    O121    O    0.88741   0.68317   0.66373   1.000
    O122    O    0.38729   0.68329   0.66369   1.000
    O123    O    0.13721   0.18318   0.83638   1.000
loop_
    _geom_bond_atom_site_label_1
    _geom_bond_atom_site_label_2
    _geom_bond_distance
    _geom_bond_site_symmetry_2
    _ccdc_geom_bond_type
    N20    O21       2.32027      .   S
    Zr12   O21       3.30287      .   S
    N20    O22       2.30978      .   S
    Zr15   O22       3.29153  1_665   S
    N20    O23       2.30297      .   S
    Zr8    O23       3.29612      .   S
    N20    O24       2.31357      .   S
    Zr14   O24       3.27650  1_565   S
    N20    O25       2.25834      .   S
    Zr9    O25       3.20752  1_655   S
    N20    O26       2.35562      .   S
    Zr18   O26       3.38556  1_556   S
    N20    O27       2.38699      .   S
    Zr16   O27       3.46158      .   S
    N28    O29       2.31316      .   S
    Zr2    O29       3.27528  1_455   S
    N28    O30       2.31014      .   S
    Zr3    O30       3.29436      .   S
    N28    O31       2.25841      .   S
    Zr5    O31       3.20769  1_556   S
    N28    O32       2.38548      .   S
    Zr18   O32       3.45884  1_446   S
    N28    O33       2.32050      .   S
    Zr0    O33       3.30218  1_455   S
    N28    O34       2.35733      .   S
    Zr17   O34       3.38754      .   S
    N28    O35       2.30249      .   S
    Zr4    O35       3.29427  1_456   S
    N36    O37       2.31322      .   S
    Zr6    O37       3.27561  1_545   S
    N36    O38       2.32020      .   S
    Zr4    O38       3.30243      .   S
    N36    O39       2.35549      .   S
    Zr19   O39       3.38536  1_545   S
    N36    O40       2.38750      .   S
    Zr16   O40       3.46226      .   S
    N36    O41       2.30972      .   S
    Zr7    O41       3.29135  1_545   S
    N36    O42       2.30255      .   S
    Zr0    O42       3.29559      .   S
    N36    O43       2.25972      .   S
    Zr1    O43       3.21044      .   S
    N44    O45       2.31928      .   S
    Zr1    O45       3.29942      .   S
    N44    O46       2.31395      .   S
    Zr3    O46       3.27620      .   S
    N44    O47       2.25832      .   S
    Zr4    O47       3.20728  1_556   S
    N44    O48       2.38566      .   S
    Zr19   O48       3.45975  1_546   S
    N44    O49       2.35696      .   S
    Zr16   O49       3.38732      .   S
    N44    O50       2.30980      .   S
    Zr2    O50       3.29325      .   S
    N44    O51       2.30290      .   S
    Zr5    O51       3.29488  1_556   S
    N52    O53       2.38759      .   S
    Zr17   O53       3.46238      .   S
    N52    O54       2.32009      .   S
    Zr13   O54       3.30234      .   S
    N52    O55       2.30977      .   S
    Zr14   O55       3.29120  1_565   S
    N52    O56       2.25860      .   S
    Zr8    O56       3.20743      .   S
    N52    O57       2.31318      .   S
    Zr15   O57       3.27562  1_565   S
    N52    O58       2.30261      .   S
    Zr9    O58       3.29570      .   S
    N52    O59       2.35540      .   S
    Zr19   O59       3.38531  1_556   S
    N60    O61       0.63363      .   S
    Zr5    O61       1.61923  1_556   S
    N60    O62       0.66882  1_554   S
    Zr7    O62       1.67674  1_545   S
    N60    O63       0.62745      .   S
    Zr19   O63       1.64456  1_546   S
    N64    O65       2.31389      .   S
    Zr10   O65       3.27608      .   S
    N64    O66       2.25841      .   S
    Zr13   O66       3.20741  1_554   S
    N64    O67       2.35680      .   S
    Zr17   O67       3.38713      .   S
    N64    O68       2.38556      .   S
    Zr19   O68       3.46004      .   S
    N64    O69       2.30973      .   S
    Zr11   O69       3.29308      .   S
    N64    O70       2.30298      .   S
    Zr12   O70       3.29493  1_554   S
    N64    O71       2.32043      .   S
    Zr8    O71       3.30337      .   S
    N72    O73       2.31012      .   S
    Zr10   O73       3.29422      .   S
    N72    O74       2.30256      .   S
    Zr13   O74       3.29438  1_654   S
    N72    O75       2.32043      .   S
    Zr9    O75       3.30207  1_655   S
    N72    O76       2.38550      .   S
    Zr18   O76       3.45883      .   S
    N72    O77       2.31311      .   S
    Zr11   O77       3.27524  1_655   S
    N72    O78       2.25845      .   S
    Zr12   O78       3.20770  1_554   S
    N72    O79       2.35721      .   S
    Zr16   O79       3.38745      .   S
    N80    O81       0.63361      .   S
    Zr9    O81       1.61873      .   S
    N80    O82       0.66912      .   S
    Zr11   O82       1.67763      .   S
    N80    O83       0.62706      .   S
    Zr17   O83       1.64363      .   S
    N84    O85       2.32032      .   S
    Zr5    O85       3.30288      .   S
    N84    O86       2.35567      .   S
    Zr18   O86       3.38555  1_445   S
    N84    O87       2.30966      .   S
    Zr6    O87       3.29162  1_445   S
    N84    O88       2.31361      .   S
    Zr7    O88       3.27647  1_545   S
    N84    O89       2.38702      .   S
    Zr17   O89       3.46147      .   S
    N84    O90       2.25850      .   S
    Zr0    O90       3.20722  1_455   S
    N84    O91       2.30404      .   S
    Zr1    O91       3.29923      .   S
    N92    O93       0.63361      .   S
    Zr8    O93       1.61905      .   S
    N92    O94       0.66909      .   S
    Zr10   O94       1.67754      .   S
    N92    O95       0.62710      .   S
    Zr16   O95       1.64364      .   S
    N96    O97       0.63360      .   S
    Zr12   O97       1.61922  1_554   S
    N96    O98       0.66879  1_556   S
    Zr14   O98       1.67721  1_565   S
    N96    O99       0.62743      .   S
    Zr19   O99       1.64457      .   S
    N100   O101      0.66886  1_554   S
    Zr6    O101      1.67681  1_545   S
    N100   O102      0.62738      .   S
    Zr18   O102      1.64448  1_546   S
    N100   O103      0.63365      .   S
    Zr4    O103      1.61907  1_556   S
    N104   O105      0.62711      .   S
    Zr17   O105      1.64365      .   S
    N104   O106      0.63406      .   S
    Zr1    O106      1.61949      .   S
    N104   O107      0.66909      .   S
    Zr3    O107      1.67755      .   S
    N108   O109      0.63365      .   S
    Zr13   O109      1.61907  1_554   S
    N108   O110      0.66886  1_556   S
    Zr15   O110      1.67675  1_565   S
    N108   O111      0.62735      .   S
    Zr18   O111      1.64437  1_455   S
    N112   O113      0.63350      .   S
    Zr0    O113      1.61869      .   S
    N112   O114      0.66876      .   S
    Zr2    O114      1.67718      .   S
    N112   O115      0.62697      .   S
    Zr16   O115      1.64361      .   S
    Zr2    O116      2.58590      .   S
    N20    O116      1.96497      .   S
    Zr3    O117      2.58745      .   S
    N52    O117      1.96564      .   S
    Zr15   O118      2.58492      .   S
    N28    O118      1.96351      .   S
    Zr14   O119      2.58549      .   S
    N44    O119      1.96378      .   S
    Zr7    O120      2.58562      .   S
    N64    O120      1.96379      .   S
    Zr11   O121      2.58588      .   S
    N84    O121      1.96497      .   S
    Zr10   O122      2.58738      .   S
    N36    O122      1.96563      .   S
    Zr6    O123      2.58492      .   S
    N72    O123      1.96355      .   S
