# CIF file generated by openbabel 2.4.90, see http://openbabel.sf.net
data_I
_chemical_name_common ''
_cell_length_a 14.357
_cell_length_b 15.243
_cell_length_c 16.405
_cell_angle_alpha 89.997
_cell_angle_beta 90.004
_cell_angle_gamma 97.449
_space_group_name_H-M_alt 'P 1'
_space_group_name_Hall 'P 1'
loop_
    _symmetry_equiv_pos_as_xyz
    x,y,z
loop_
    _atom_site_label
    _atom_site_type_symbol
    _atom_site_fract_x
    _atom_site_fract_y
    _atom_site_fract_z
    _atom_site_occupancy
    C0      C    0.09781   0.66242   0.49335   1.000
    C1      C    0.59772   0.66241   0.49300   1.000
    C2      C    0.09349   0.47796   0.37500   1.000
    C3      C    0.59355   0.47794   0.37499   1.000
    C4      C    0.15245   0.83769   0.99328   1.000
    C5      C    0.65245   0.83763   0.99332   1.000
    C6      C    0.15664   0.02215   0.87503   1.000
    C7      C    0.65669   0.02212   0.87502   1.000
    C8      C    0.40229   0.33759   0.50659   1.000
    C9      C    0.90220   0.33758   0.50664   1.000
    C10     C    0.40645   0.52205   0.62500   1.000
    C11     C    0.90652   0.52204   0.62499   1.000
    C12     C    0.34756   0.16238   0.00666   1.000
    C13     C    0.84756   0.16231   0.00671   1.000
    C14     C    0.34332   0.97788   0.12496   1.000
    C15     C    0.84337   0.97784   0.12495   1.000
    C16     C    0.24998   0.50000   0.50000   1.000
    C17     C    0.75003   0.50000   0.49999   1.000
    C18     C    0.00000   0.00000   0.99999   1.000
    C19     C    0.50000   0.00000   0.99999   1.000
    C20     C    0.41958   0.49868   0.46392   1.000
    C21     C    0.91960   0.49865   0.46390   1.000
    C22     C    0.20477   0.66569   0.20730   1.000
    C23     C    0.70501   0.66550   0.20733   1.000
    C24     C    0.05051   0.73624   0.22519   1.000
    C25     C    0.55037   0.73582   0.22500   1.000
    C26     C    0.33030   0.00130   0.96395   1.000
    C27     C    0.83032   0.00124   0.96392   1.000
    C28     C    0.04552   0.83466   0.70727   1.000
    C29     C    0.54539   0.83528   0.70696   1.000
    C30     C    0.19996   0.76392   0.72535   1.000
    C31     C    0.70000   0.76393   0.72530   1.000
    C32     C    0.08041   0.50134   0.53600   1.000
    C33     C    0.58043   0.50131   0.53607   1.000
    C34     C    0.29500   0.33450   0.79260   1.000
    C35     C    0.79524   0.33433   0.79270   1.000
    C36     C    0.44965   0.26418   0.77480   1.000
    C37     C    0.94950   0.26375   0.77480   1.000
    C38     C    0.16969   0.99876   0.03606   1.000
    C39     C    0.66972   0.99871   0.03604   1.000
    C40     C    0.45462   0.16471   0.29303   1.000
    C41     C    0.95449   0.16532   0.29272   1.000
    C42     C    0.30001   0.23608   0.27468   1.000
    C43     C    0.80004   0.23608   0.27464   1.000
    C44     C    0.42673   0.66487   0.28006   1.000
    C45     C    0.92700   0.66514   0.28016   1.000
    C46     C    0.32809   0.64391   0.27374   1.000
    C47     C    0.82836   0.64401   0.27385   1.000
    C48     C    0.28053   0.68309   0.21206   1.000
    C49     C    0.78074   0.68301   0.21210   1.000
    C50     C    0.32763   0.74403   0.15789   1.000
    C51     C    0.82772   0.74397   0.15780   1.000
    C52     C    0.42593   0.76188   0.16149   1.000
    C53     C    0.92601   0.76198   0.16148   1.000
    C54     C    0.47411   0.72185   0.22240   1.000
    C55     C    0.97427   0.72215   0.22247   1.000
    C56     C    0.48672   0.62534   0.34230   1.000
    C57     C    0.98715   0.62564   0.34228   1.000
    C58     C    0.26861   0.58655   0.33347   1.000
    C59     C    0.76883   0.58666   0.33357   1.000
    C60     C    0.26942   0.78501   0.09673   1.000
    C61     C    0.76938   0.78482   0.09674   1.000
    C62     C    0.47948   0.81924   0.09833   1.000
    C63     C    0.97956   0.81928   0.09829   1.000
    C64     C    0.32347   0.83539   0.78000   1.000
    C65     C    0.82355   0.83522   0.78008   1.000
    C66     C    0.42207   0.85671   0.77355   1.000
    C67     C    0.92217   0.85641   0.77367   1.000
    C68     C    0.46968   0.81762   0.71187   1.000
    C69     C    0.96978   0.81719   0.71207   1.000
    C70     C    0.42271   0.75635   0.65788   1.000
    C71     C    0.92277   0.75604   0.65802   1.000
    C72     C    0.32443   0.73812   0.66160   1.000
    C73     C    0.82447   0.73801   0.66167   1.000
    C74     C    0.27620   0.77813   0.72253   1.000
    C75     C    0.77625   0.77804   0.72254   1.000
    C76     C    0.26340   0.87495   0.84217   1.000
    C77     C    0.76351   0.87482   0.84223   1.000
    C78     C    0.48148   0.91411   0.83329   1.000
    C79     C    0.98154   0.91393   0.83334   1.000
    C80     C    0.48104   0.71538   0.59686   1.000
    C81     C    0.98106   0.71507   0.59694   1.000
    C82     C    0.27074   0.68060   0.59864   1.000
    C83     C    0.77081   0.68056   0.59860   1.000
    C84     C    0.07301   0.33485   0.71982   1.000
    C85     C    0.57328   0.33513   0.71990   1.000
    C86     C    0.17165   0.35598   0.72614   1.000
    C87     C    0.67192   0.35610   0.72625   1.000
    C88     C    0.21927   0.31699   0.78780   1.000
    C89     C    0.71949   0.31693   0.78793   1.000
    C90     C    0.17229   0.25603   0.84211   1.000
    C91     C    0.67239   0.25598   0.84210   1.000
    C92     C    0.07400   0.23801   0.83850   1.000
    C93     C    0.57409   0.23812   0.83849   1.000
    C94     C    0.02574   0.27784   0.77752   1.000
    C95     C    0.52590   0.27816   0.77758   1.000
    C96     C    0.01286   0.37435   0.65771   1.000
    C97     C    0.51329   0.37467   0.65769   1.000
    C98     C    0.23118   0.41334   0.66642   1.000
    C99     C    0.73140   0.41346   0.66653   1.000
    C100    C    0.23064   0.21519   0.90324   1.000
    C101    C    0.73060   0.21500   0.90326   1.000
    C102    C    0.02045   0.18071   0.90170   1.000
    C103    C    0.52053   0.18075   0.90164   1.000
    C104    C    0.17646   0.16479   0.21990   1.000
    C105    C    0.67654   0.16461   0.21995   1.000
    C106    C    0.07785   0.14359   0.22632   1.000
    C107    C    0.57794   0.14329   0.22644   1.000
    C108    C    0.03023   0.18280   0.28791   1.000
    C109    C    0.53033   0.18237   0.28812   1.000
    C110    C    0.07724   0.24396   0.34197   1.000
    C111    C    0.57730   0.24364   0.34210   1.000
    C112    C    0.17553   0.26199   0.33832   1.000
    C113    C    0.67557   0.26188   0.33833   1.000
    C114    C    0.22376   0.22197   0.27744   1.000
    C115    C    0.72381   0.22186   0.27745   1.000
    C116    C    0.23651   0.12520   0.15775   1.000
    C117    C    0.73661   0.12505   0.15781   1.000
    C118    C    0.01847   0.08606   0.16660   1.000
    C119    C    0.51853   0.08588   0.16670   1.000
    C120    C    0.01895   0.28493   0.40305   1.000
    C121    C    0.51896   0.28461   0.40313   1.000
    C122    C    0.22920   0.31944   0.40138   1.000
    C123    C    0.72926   0.31940   0.40130   1.000
    C124    C    0.47894   0.54118   0.34740   1.000
    C125    C    0.97914   0.54149   0.34750   1.000
    C126    C    0.04531   0.68032   0.38172   1.000
    C127    C    0.54453   0.68009   0.38198   1.000
    C128    C    0.19055   0.54686   0.30603   1.000
    C129    C    0.69068   0.54710   0.30616   1.000
    C130    C    0.29769   0.58547   0.40628   1.000
    C131    C    0.79794   0.58549   0.40636   1.000
    C132    C    0.25541   0.86713   0.10450   1.000
    C133    C    0.75561   0.86702   0.10432   1.000
    C134    C    0.22843   0.73863   0.04104   1.000
    C135    C    0.72803   0.73828   0.04132   1.000
    C136    C    0.04424   0.78556   0.06189   1.000
    C137    C    0.54418   0.78556   0.06192   1.000
    C138    C    0.45567   0.89586   0.08546   1.000
    C139    C    0.95576   0.89590   0.08538   1.000
    C140    C    0.38680   0.46769   0.51032   1.000
    C141    C    0.88684   0.46767   0.51031   1.000
    C142    C    0.27152   0.95910   0.84748   1.000
    C143    C    0.77156   0.95897   0.84747   1.000
    C144    C    0.20517   0.82033   0.88159   1.000
    C145    C    0.70539   0.82018   0.88173   1.000
    C146    C    0.05935   0.95413   0.80580   1.000
    C147    C    0.55933   0.95427   0.80580   1.000
    C148    C    0.45258   0.91468   0.90617   1.000
    C149    C    0.95260   0.91463   0.90620   1.000
    C150    C    0.49415   0.63298   0.60410   1.000
    C151    C    0.99451   0.63278   0.60439   1.000
    C152    C    0.02260   0.76162   0.54160   1.000
    C153    C    0.52293   0.76199   0.54172   1.000
    C154    C    0.20640   0.71444   0.56189   1.000
    C155    C    0.70639   0.71437   0.56191   1.000
    C156    C    0.29394   0.60363   0.58628   1.000
    C157    C    0.79416   0.60367   0.58610   1.000
    C158    C    0.36310   0.03226   0.01030   1.000
    C159    C    0.86308   0.03221   0.01035   1.000
    C160    C    0.02087   0.45850   0.65249   1.000
    C161    C    0.52108   0.45882   0.65257   1.000
    C162    C    0.45549   0.31991   0.61801   1.000
    C163    C    0.95469   0.31968   0.61827   1.000
    C164    C    0.30933   0.45289   0.69380   1.000
    C165    C    0.80945   0.45316   0.69396   1.000
    C166    C    0.20206   0.41451   0.59363   1.000
    C167    C    0.70232   0.41452   0.59371   1.000
    C168    C    0.24440   0.13297   0.89568   1.000
    C169    C    0.74459   0.13288   0.89550   1.000
    C170    C    0.27200   0.26173   0.95865   1.000
    C171    C    0.77161   0.26139   0.95893   1.000
    C172    C    0.45585   0.21444   0.93808   1.000
    C173    C    0.95577   0.21444   0.93810   1.000
    C174    C    0.04424   0.10409   0.91459   1.000
    C175    C    0.54431   0.10411   0.91440   1.000
    C176    C    0.11317   0.53233   0.48967   1.000
    C177    C    0.61321   0.53230   0.48967   1.000
    C178    C    0.22847   0.04105   0.15252   1.000
    C179    C    0.72850   0.04090   0.15251   1.000
    C180    C    0.29462   0.17985   0.11825   1.000
    C181    C    0.79483   0.17967   0.11840   1.000
    C182    C    0.44070   0.04570   0.19414   1.000
    C183    C    0.94066   0.04587   0.19412   1.000
    C184    C    0.04742   0.08536   0.09379   1.000
    C185    C    0.54743   0.08531   0.09382   1.000
    C186    C    0.00550   0.36722   0.39560   1.000
    C187    C    0.50585   0.36701   0.39583   1.000
    C188    C    0.47708   0.23800   0.45826   1.000
    C189    C    0.97741   0.23838   0.45830   1.000
    C190    C    0.29361   0.28563   0.43808   1.000
    C191    C    0.79361   0.28555   0.43809   1.000
    C192    C    0.20586   0.39633   0.41385   1.000
    C193    C    0.70606   0.39636   0.41371   1.000
    C194    C    0.13692   0.96779   0.98964   1.000
    C195    C    0.63691   0.96774   0.98962   1.000
    O196    O    0.35533   0.09732   0.00848   1.000
    O197    O    0.32109   0.17111   0.06246   1.000
    O198    O    0.40171   0.18841   0.97237   1.000
    O199    O    0.30978   0.21205   0.98265   1.000
    O200    O    0.85532   0.09726   0.00853   1.000
    O201    O    0.82120   0.17099   0.06256   1.000
    O202    O    0.90167   0.18837   0.97240   1.000
    O203    O    0.80959   0.21185   0.98282   1.000
    O204    O    0.34670   0.01678   0.98712   1.000
    O205    O    0.84670   0.01673   0.98713   1.000
    O206    O    0.65331   0.98323   0.01283   1.000
    O207    O    0.15331   0.98327   0.01285   1.000
    O208    O    0.24892   0.76182   0.06888   1.000
    O209    O    0.19044   0.78816   0.01716   1.000
    O210    O    0.74870   0.76155   0.06903   1.000
    O211    O    0.69024   0.78795   0.01732   1.000
    O212    O    0.01190   0.80242   0.08009   1.000
    O213    O    0.09835   0.81162   0.02758   1.000
    O214    O    0.51183   0.80240   0.08013   1.000
    O215    O    0.59832   0.81159   0.02762   1.000
    O216    O    0.96766   0.85759   0.09183   1.000
    O217    O    0.97788   0.94795   0.04268   1.000
    O218    O    0.46757   0.85755   0.09189   1.000
    O219    O    0.47784   0.94793   0.04272   1.000
    O220    O    0.03295   0.08571   0.13019   1.000
    O221    O    0.02371   0.04268   0.04689   1.000
    O222    O    0.53298   0.08559   0.13026   1.000
    O223    O    0.52372   0.04266   0.04690   1.000
    O224    O    0.26241   0.82607   0.10061   1.000
    O225    O    0.29852   0.76452   0.12731   1.000
    O226    O    0.76249   0.82592   0.10053   1.000
    O227    O    0.79855   0.76439   0.12727   1.000
    O228    O    0.95278   0.79063   0.12989   1.000
    O229    O    0.45271   0.79056   0.12991   1.000
    O230    O    0.79949   0.92243   0.11463   1.000
    O231    O    0.29936   0.92250   0.11473   1.000
    O232    O    0.26556   0.15252   0.13800   1.000
    O233    O    0.76572   0.15236   0.13810   1.000
    O234    O    0.78593   0.00937   0.13873   1.000
    O235    O    0.89202   0.01186   0.15953   1.000
    O236    O    0.28589   0.00946   0.13874   1.000
    O237    O    0.39201   0.01179   0.15955   1.000
    O238    O    0.73255   0.08298   0.15516   1.000
    O239    O    0.23249   0.08312   0.15513   1.000
    O240    O    0.20649   0.14499   0.18882   1.000
    O241    O    0.87686   0.75298   0.15964   1.000
    O242    O    0.80423   0.71349   0.18495   1.000
    O243    O    0.70658   0.14483   0.18888   1.000
    O244    O    0.37678   0.75296   0.15969   1.000
    O245    O    0.30408   0.71356   0.18497   1.000
    O246    O    0.95014   0.74207   0.19197   1.000
    O247    O    0.45002   0.74186   0.19194   1.000
    O248    O    0.97957   0.06596   0.18036   1.000
    O249    O    0.04816   0.11483   0.19646   1.000
    O250    O    0.47961   0.06579   0.18042   1.000
    O251    O    0.54824   0.11458   0.19657   1.000
    O252    O    0.24265   0.67439   0.20968   1.000
    O253    O    0.74287   0.67426   0.20972   1.000
    O254    O    0.30431   0.66350   0.24290   1.000
    O255    O    0.80455   0.66351   0.24297   1.000
    O256    O    0.12716   0.15419   0.22311   1.000
    O257    O    0.20011   0.19338   0.24867   1.000
    O258    O    0.62724   0.15395   0.22319   1.000
    O259    O    0.70017   0.19324   0.24870   1.000
    O260    O    0.51224   0.72883   0.22370   1.000
    O261    O    0.45042   0.69336   0.25123   1.000
    O262    O    0.01239   0.72920   0.22383   1.000
    O263    O    0.95063   0.69365   0.25132   1.000
    O264    O    0.05404   0.16320   0.25711   1.000
    O265    O    0.55414   0.16283   0.25728   1.000
    O266    O    0.37741   0.65439   0.27690   1.000
    O267    O    0.29835   0.61523   0.30360   1.000
    O268    O    0.87768   0.65458   0.27701   1.000
    O269    O    0.79859   0.61533   0.30371   1.000
    O270    O    0.76192   0.22897   0.27604   1.000
    O271    O    0.26188   0.22902   0.27606   1.000
    O272    O    0.19965   0.24198   0.30788   1.000
    O273    O    0.69969   0.24187   0.30789   1.000
    O274    O    0.45673   0.64510   0.31118   1.000
    O275    O    0.95707   0.64539   0.31122   1.000
    O276    O    0.99236   0.17406   0.29031   1.000
    O277    O    0.05373   0.21338   0.31494   1.000
    O278    O    0.49247   0.17354   0.29057   1.000
    O279    O    0.55381   0.21300   0.31511   1.000
    O280    O    0.22958   0.56671   0.31975   1.000
    O281    O    0.14202   0.51241   0.34052   1.000
    O282    O    0.72975   0.56688   0.31987   1.000
    O283    O    0.64212   0.51252   0.34058   1.000
    O284    O    0.28315   0.58601   0.36988   1.000
    O285    O    0.78338   0.58607   0.36996   1.000
    O286    O    0.12639   0.25298   0.34014   1.000
    O287    O    0.20237   0.29071   0.36985   1.000
    O288    O    0.62643   0.25276   0.34021   1.000
    O289    O    0.70242   0.29064   0.36981   1.000
    O290    O    0.04810   0.26444   0.37251   1.000
    O291    O    0.54813   0.26412   0.37261   1.000
    O292    O    0.98314   0.58357   0.34489   1.000
    O293    O    0.01623   0.65298   0.36200   1.000
    O294    O    0.48283   0.58326   0.34485   1.000
    O295    O    0.51562   0.65272   0.36214   1.000
    O296    O    0.53625   0.50956   0.36119   1.000
    O297    O    0.03631   0.50973   0.36125   1.000
    O298    O    0.54970   0.42248   0.38541   1.000
    O299    O    0.04950   0.42259   0.38530   1.000
    O300    O    0.07156   0.67137   0.43754   1.000
    O301    O    0.57112   0.67125   0.43749   1.000
    O302    O    0.01223   0.32607   0.39932   1.000
    O303    O    0.51241   0.32581   0.39948   1.000
    O304    O    0.71766   0.35788   0.40751   1.000
    O305    O    0.76144   0.30247   0.41969   1.000
    O306    O    0.21753   0.35788   0.40762   1.000
    O307    O    0.26140   0.30253   0.41973   1.000
    O308    O    0.99818   0.26165   0.43067   1.000
    O309    O    0.49802   0.26131   0.43069   1.000
    O310    O    0.27384   0.54274   0.45314   1.000
    O311    O    0.77398   0.54274   0.45317   1.000
    O312    O    0.72804   0.44818   0.45685   1.000
    O313    O    0.22792   0.44817   0.45692   1.000
    O314    O    0.34795   0.31161   0.47233   1.000
    O315    O    0.84791   0.31156   0.47236   1.000
    O316    O    0.43968   0.28779   0.48242   1.000
    O317    O    0.93981   0.28798   0.48247   1.000
    O318    O    0.90322   0.48316   0.48711   1.000
    O319    O    0.40319   0.48319   0.48712   1.000
    O320    O    0.10549   0.59737   0.49151   1.000
    O321    O    0.09679   0.51683   0.51284   1.000
    O322    O    0.60547   0.59736   0.49134   1.000
    O323    O    0.59682   0.51681   0.51287   1.000
    O324    O    0.56032   0.71220   0.51736   1.000
    O325    O    0.65206   0.68839   0.52746   1.000
    O326    O    0.06020   0.71202   0.51747   1.000
    O327    O    0.15210   0.68843   0.52762   1.000
    O328    O    0.77209   0.55184   0.54304   1.000
    O329    O    0.72617   0.45726   0.54685   1.000
    O330    O    0.27196   0.55182   0.54314   1.000
    O331    O    0.22602   0.45725   0.54681   1.000
    O332    O    0.39454   0.40264   0.50845   1.000
    O333    O    0.42889   0.32875   0.56230   1.000
    O334    O    0.89452   0.40262   0.50848   1.000
    O335    O    0.92845   0.32863   0.56245   1.000
    O336    O    0.00183   0.73834   0.56927   1.000
    O337    O    0.50198   0.73869   0.56929   1.000
    O338    O    0.23857   0.69752   0.58027   1.000
    O339    O    0.73860   0.69746   0.58026   1.000
    O340    O    0.78249   0.64212   0.59235   1.000
    O341    O    0.28234   0.64212   0.59246   1.000
    O342    O    0.21662   0.41392   0.63002   1.000
    O343    O    0.71686   0.41399   0.63012   1.000
    O344    O    0.48760   0.67418   0.60048   1.000
    O345    O    0.45187   0.73587   0.62737   1.000
    O346    O    0.98779   0.67392   0.60067   1.000
    O347    O    0.95191   0.73555   0.62748   1.000
    O348    O    0.79764   0.70929   0.63013   1.000
    O349    O    0.29759   0.70936   0.63012   1.000
    O350    O    0.45030   0.57752   0.61455   1.000
    O351    O    0.95051   0.57741   0.61469   1.000
    O352    O    0.48439   0.34729   0.63785   1.000
    O353    O    0.98377   0.34701   0.63799   1.000
    O354    O    0.96369   0.49027   0.63874   1.000
    O355    O    0.85798   0.48760   0.65948   1.000
    O356    O    0.46376   0.49044   0.63879   1.000
    O357    O    0.35789   0.48747   0.65940   1.000
    O358    O    0.01686   0.41643   0.65510   1.000
    O359    O    0.51718   0.41674   0.65513   1.000
    O360    O    0.54329   0.35490   0.68879   1.000
    O361    O    0.04293   0.35460   0.68876   1.000
    O362    O    0.37357   0.74724   0.65974   1.000
    O363    O    0.44619   0.78699   0.68487   1.000
    O364    O    0.87362   0.74702   0.65984   1.000
    O365    O    0.94628   0.78661   0.68505   1.000
    O366    O    0.30032   0.75813   0.69206   1.000
    O367    O    0.80036   0.75803   0.69210   1.000
    O368    O    0.27025   0.43311   0.68011   1.000
    O369    O    0.20141   0.38466   0.69628   1.000
    O370    O    0.77043   0.43331   0.68024   1.000
    O371    O    0.70166   0.38478   0.69639   1.000
    O372    O    0.50753   0.82645   0.70941   1.000
    O373    O    0.00765   0.82593   0.70967   1.000
    O374    O    0.44587   0.83716   0.74271   1.000
    O375    O    0.94597   0.83680   0.74287   1.000
    O376    O    0.12233   0.34542   0.72298   1.000
    O377    O    0.04937   0.30635   0.74867   1.000
    O378    O    0.62260   0.34562   0.72307   1.000
    O379    O    0.54959   0.30665   0.74874   1.000
    O380    O    0.23808   0.77103   0.72394   1.000
    O381    O    0.29983   0.80676   0.75126   1.000
    O382    O    0.73813   0.77099   0.72392   1.000
    O383    O    0.79990   0.80663   0.75131   1.000
    O384    O    0.19546   0.33648   0.75697   1.000
    O385    O    0.69571   0.33652   0.75709   1.000
    O386    O    0.37277   0.84605   0.77677   1.000
    O387    O    0.45177   0.88541   0.80342   1.000
    O388    O    0.87286   0.84581   0.77687   1.000
    O389    O    0.95185   0.88517   0.80350   1.000
    O390    O    0.48778   0.27117   0.77619   1.000
    O391    O    0.98762   0.27079   0.77616   1.000
    O392    O    0.04987   0.25793   0.80801   1.000
    O393    O    0.55000   0.25814   0.80803   1.000
    O394    O    0.29343   0.85517   0.81109   1.000
    O395    O    0.79353   0.85502   0.81115   1.000
    O396    O    0.25713   0.32574   0.79020   1.000
    O397    O    0.19578   0.28651   0.81495   1.000
    O398    O    0.75736   0.32563   0.79031   1.000
    O399    O    0.69594   0.28646   0.81502   1.000
    O400    O    0.52040   0.93419   0.81954   1.000
    O401    O    0.60801   0.98819   0.84041   1.000
    O402    O    0.02044   0.93403   0.81957   1.000
    O403    O    0.10799   0.98814   0.84041   1.000
    O404    O    0.46703   0.91440   0.86973   1.000
    O405    O    0.96707   0.91428   0.86977   1.000
    O406    O    0.62324   0.24705   0.84029   1.000
    O407    O    0.54731   0.20944   0.87006   1.000
    O408    O    0.12315   0.24702   0.84030   1.000
    O409    O    0.04723   0.20936   0.87010   1.000
    O410    O    0.70149   0.23549   0.87268   1.000
    O411    O    0.20147   0.23561   0.87267   1.000
    O412    O    0.26746   0.91703   0.84482   1.000
    O413    O    0.23428   0.84764   0.86188   1.000
    O414    O    0.76754   0.91690   0.84485   1.000
    O415    O    0.73445   0.84750   0.86198   1.000
    O416    O    0.71413   0.99055   0.86124   1.000
    O417    O    0.21408   0.99063   0.86125   1.000
    O418    O    0.70064   0.07750   0.88526   1.000
    O419    O    0.20052   0.07756   0.88535   1.000
    O420    O    0.17881   0.82901   0.93744   1.000
    O421    O    0.67892   0.82890   0.93752   1.000
    O422    O    0.73759   0.17394   0.89938   1.000
    O423    O    0.23752   0.17408   0.89946   1.000
    O424    O    0.53242   0.14243   0.90802   1.000
    O425    O    0.48819   0.19760   0.91986   1.000
    O426    O    0.03235   0.14240   0.90814   1.000
    O427    O    0.98811   0.19757   0.91990   1.000
    O428    O    0.25132   0.23846   0.93095   1.000
    O429    O    0.75111   0.23820   0.93109   1.000
    O430    O    0.47629   0.95734   0.95308   1.000
    O431    O    0.97630   0.95732   0.95309   1.000
    O432    O    0.52216   0.05205   0.95720   1.000
    O433    O    0.02212   0.05204   0.95729   1.000
    O434    O    0.64468   0.90269   0.99147   1.000
    O435    O    0.14469   0.90274   0.99146   1.000
    O436    O    0.39949   0.93687   0.10521   1.000
    O437    O    0.89957   0.93687   0.10517   1.000
    O438    O    0.39662   0.49487   0.56766   1.000
    O439    O    0.31839   0.48385   0.50516   1.000
    O440    O    0.89668   0.49485   0.56765   1.000
    O441    O    0.81843   0.48383   0.50515   1.000
    O442    O    0.35020   0.56284   0.60564   1.000
    O443    O    0.85034   0.56286   0.60554   1.000
    O444    O    0.35321   0.00507   0.06763   1.000
    O445    O    0.43155   0.01613   0.00514   1.000
    O446    O    0.85323   0.00503   0.06765   1.000
    O447    O    0.93154   0.01611   0.00517   1.000
    O448    O    0.10044   0.06312   0.89481   1.000
    O449    O    0.60050   0.06311   0.89471   1.000
    O450    O    0.10333   0.50514   0.43233   1.000
    O451    O    0.18158   0.51616   0.49483   1.000
    O452    O    0.60338   0.50512   0.43233   1.000
    O453    O    0.68162   0.51615   0.49483   1.000
    O454    O    0.14967   0.43715   0.39442   1.000
    O455    O    0.64981   0.43715   0.39435   1.000
    O456    O    0.14678   0.99497   0.93233   1.000
    O457    O    0.06846   0.98389   0.99481   1.000
    O458    O    0.64680   0.99493   0.93232   1.000
    O459    O    0.56846   0.98387   0.99481   1.000
loop_
    _geom_bond_atom_site_label_1
    _geom_bond_atom_site_label_2
    _geom_bond_distance
    _geom_bond_site_symmetry_2
    _ccdc_geom_bond_type
    C12    O196      1.01264      .   S
    C158   O196      1.01264      .   S
    C12    O197      1.00654      .   S
    C180   O197      1.00654      .   S
    C12    O198      0.99914  1_554   S
    C172   O198      0.99914      .   S
    C12    O199      1.06256  1_554   S
    C170   O199      1.06256      .   S
    C13    O200      1.01248      .   S
    C159   O200      1.01248      .   S
    C13    O201      1.00654      .   S
    C181   O201      1.00654      .   S
    C13    O202      0.99901  1_554   S
    C173   O202      0.99901      .   S
    C13    O203      1.06199  1_554   S
    C171   O203      1.06199      .   S
    C158   O204      0.49118  1_554   S
    C26    O204      0.49118      .   S
    C159   O205      0.49161  1_554   S
    C27    O205      0.49161      .   S
    C39    O206      0.49163      .   S
    C195   O206      0.49163  1_556   S
    C38    O207      0.49156      .   S
    C194   O207      0.49156  1_556   S
    C134   O208      0.62709      .   S
    C60    O208      0.62709      .   S
    C134   O209      1.06193      .   S
    C4     O209      1.06193  1_556   S
    C135   O210      0.62706      .   S
    C61    O210      0.62706      .   S
    C135   O211      1.06260      .   S
    C5     O211      1.06260  1_556   S
    C136   O212      0.63386      .   S
    C63    O212      0.63386  1_655   S
    C136   O213      0.99897      .   S
    C4     O213      0.99897  1_556   S
    C137   O214      0.63381      .   S
    C62    O214      0.63381      .   S
    C137   O215      0.99914      .   S
    C5     O215      0.99914  1_556   S
    C139   O216      0.63818      .   S
    C63    O216      0.63818      .   S
    C139   O217      1.07497      .   S
    C18    O217      1.07497  1_446   S
    C138   O218      0.63822      .   S
    C62    O218      0.63822      .   S
    C138   O219      1.07573      .   S
    C19    O219      1.07573  1_546   S
    C184   O220      0.63260      .   S
    C118   O220      0.63260      .   S
    C184   O221      1.03618      .   S
    C18    O221      1.03618  1_556   S
    C185   O222      0.63298      .   S
    C119   O222      0.63298      .   S
    C185   O223      1.03616      .   S
    C19    O223      1.03616  1_556   S
    C60    O224      0.64975      .   S
    C132   O224      0.64975      .   S
    C60    O225      0.74672      .   S
    C50    O225      0.74672      .   S
    C61    O226      0.64982      .   S
    C133   O226      0.64982      .   S
    C61    O227      0.74628      .   S
    C51    O227      0.74628      .   S
    C63    O228      0.75073      .   S
    C53    O228      0.75073      .   S
    C62    O229      0.75082      .   S
    C52    O229      0.75082      .   S
    C133   O230      1.00045      .   S
    C15    O230      1.00045      .   S
    C132   O231      1.00037      .   S
    C14    O231      1.00037      .   S
    C180   O232      0.63830      .   S
    C116   O232      0.63830      .   S
    C181   O233      0.63824      .   S
    C117   O233      0.63824      .   S
    C15    O234      1.03192  1_565   S
    C179   O234      1.03192      .   S
    C15    O235      0.99227  1_565   S
    C183   O235      0.99227      .   S
    C14    O236      1.03223  1_565   S
    C178   O236      1.03223      .   S
    C14    O237      0.99203  1_565   S
    C182   O237      0.99203      .   S
    C179   O238      0.63794      .   S
    C117   O238      0.63794      .   S
    C178   O239      0.63791      .   S
    C116   O239      0.63791      .   S
    C116   O240      0.75529      .   S
    C104   O240      0.75529      .   S
    C51    O241      0.70177      .   S
    C53    O241      0.70177      .   S
    C51    O242      0.69809      .   S
    C49    O242      0.69809      .   S
    C117   O243      0.75524      .   S
    C105   O243      0.75524      .   S
    C50    O244      0.70174      .   S
    C52    O244      0.70174      .   S
    C50    O245      0.69770      .   S
    C48    O245      0.69770      .   S
    C53    O246      0.69976      .   S
    C55    O246      0.69976      .   S
    C52    O247      0.69976      .   S
    C54    O247      0.69976      .   S
    C118   O248      0.64220  1_455   S
    C183   O248      0.64220      .   S
    C118   O249      0.75194      .   S
    C106   O249      0.75194      .   S
    C119   O250      0.64210      .   S
    C182   O250      0.64210      .   S
    C119   O251      0.75170      .   S
    C107   O251      0.75170      .   S
    C22    O252      0.54417      .   S
    C48    O252      0.54417      .   S
    C23    O253      0.54415      .   S
    C49    O253      0.54415      .   S
    C48    O254      0.69864      .   S
    C46    O254      0.69864      .   S
    C49    O255      0.69859      .   S
    C47    O255      0.69859      .   S
    C104   O256      0.70738      .   S
    C106   O256      0.70738      .   S
    C104   O257      0.69970      .   S
    C114   O257      0.69970      .   S
    C105   O258      0.70739      .   S
    C107   O258      0.70739      .   S
    C105   O259      0.69969      .   S
    C115   O259      0.69969      .   S
    C54    O260      0.54439      .   S
    C25    O260      0.54439      .   S
    C54    O261      0.69973      .   S
    C44    O261      0.69973      .   S
    C55    O262      0.54439  1_655   S
    C24    O262      0.54439      .   S
    C55    O263      0.69970      .   S
    C45    O263      0.69970      .   S
    C106   O264      0.69850      .   S
    C108   O264      0.69850      .   S
    C107   O265      0.69855      .   S
    C109   O265      0.69855      .   S
    C46    O266      0.70731      .   S
    C44    O266      0.70731      .   S
    C46    O267      0.75171      .   S
    C58    O267      0.75171      .   S
    C47    O268      0.70744      .   S
    C45    O268      0.70744      .   S
    C47    O269      0.75181      .   S
    C59    O269      0.75181      .   S
    C43    O270      0.54441      .   S
    C115   O270      0.54441      .   S
    C42    O271      0.54443      .   S
    C114   O271      0.54443      .   S
    C114   O272      0.69977      .   S
    C112   O272      0.69977      .   S
    C115   O273      0.69978      .   S
    C113   O273      0.69978      .   S
    C44    O274      0.75530      .   S
    C56    O274      0.75530      .   S
    C45    O275      0.75522      .   S
    C57    O275      0.75522      .   S
    C108   O276      0.54415  1_455   S
    C41    O276      0.54415      .   S
    C108   O277      0.69784      .   S
    C110   O277      0.69784      .   S
    C109   O278      0.54419      .   S
    C40    O278      0.54419      .   S
    C109   O279      0.69782      .   S
    C111   O279      0.69782      .   S
    C128   O280      0.64200      .   S
    C58    O280      0.64200      .   S
    C128   O281      0.99319      .   S
    C2     O281      0.99319      .   S
    C129   O282      0.64208      .   S
    C59    O282      0.64208      .   S
    C129   O283      0.99369      .   S
    C3     O283      0.99369      .   S
    C58    O284      0.63306      .   S
    C130   O284      0.63306      .   S
    C59    O285      0.63302      .   S
    C131   O285      0.63302      .   S
    C112   O286      0.70180      .   S
    C110   O286      0.70180      .   S
    C112   O287      0.75093      .   S
    C122   O287      0.75093      .   S
    C113   O288      0.70180      .   S
    C111   O288      0.70180      .   S
    C113   O289      0.75081      .   S
    C123   O289      0.75081      .   S
    C110   O290      0.74667      .   S
    C120   O290      0.74667      .   S
    C111   O291      0.74659      .   S
    C121   O291      0.74659      .   S
    C57    O292      0.63788      .   S
    C125   O292      0.63788      .   S
    C57    O293      0.63836  1_655   S
    C126   O293      0.63836      .   S
    C56    O294      0.63793      .   S
    C124   O294      0.63793      .   S
    C56    O295      0.63825      .   S
    C127   O295      0.63825      .   S
    C124   O296      1.03113      .   S
    C3     O296      1.03113      .   S
    C125   O297      1.03067  1_655   S
    C2     O297      1.03067      .   S
    C3     O298      1.00116      .   S
    C187   O298      1.00116      .   S
    C2     O299      1.00083      .   S
    C186   O299      1.00083      .   S
    C126   O300      1.00614      .   S
    C0     O300      1.00614      .   S
    C127   O301      1.00326      .   S
    C1     O301      1.00326      .   S
    C186   O302      0.64967      .   S
    C120   O302      0.64967      .   S
    C187   O303      0.64978      .   S
    C121   O303      0.64978      .   S
    C123   O304      0.63837      .   S
    C193   O304      0.63837      .   S
    C123   O305      0.63390      .   S
    C191   O305      0.63390      .   S
    C122   O306      0.63834      .   S
    C192   O306      0.63834      .   S
    C122   O307      0.63375      .   S
    C190   O307      0.63375      .   S
    C120   O308      0.62669  1_455   S
    C189   O308      0.62669      .   S
    C121   O309      0.62720      .   S
    C188   O309      0.62720      .   S
    C130   O310      1.03671      .   S
    C16    O310      1.03671      .   S
    C131   O311      1.03661      .   S
    C17    O311      1.03661      .   S
    C193   O312      1.07692      .   S
    C17    O312      1.07692      .   S
    C192   O313      1.07662      .   S
    C16    O313      1.07662      .   S
    C190   O314      1.00054      .   S
    C8     O314      1.00054      .   S
    C191   O315      1.00043      .   S
    C9     O315      1.00043      .   S
    C188   O316      1.06167      .   S
    C8     O316      1.06167      .   S
    C189   O317      1.06121      .   S
    C9     O317      1.06121      .   S
    C21    O318      0.49152      .   S
    C141   O318      0.49152      .   S
    C20    O319      0.49154      .   S
    C140   O319      0.49154      .   S
    C176   O320      1.01217      .   S
    C0     O320      1.01217      .   S
    C176   O321      0.49102      .   S
    C32    O321      0.49102      .   S
    C177   O322      1.01241      .   S
    C1     O322      1.01241      .   S
    C177   O323      0.49154      .   S
    C33    O323      0.49154      .   S
    C1     O324      1.06287      .   S
    C153   O324      1.06287      .   S
    C1     O325      1.00236      .   S
    C155   O325      1.00236      .   S
    C0     O326      1.06096      .   S
    C152   O326      1.06096      .   S
    C0     O327      1.00038      .   S
    C154   O327      1.00038      .   S
    C17    O328      1.07647      .   S
    C157   O328      1.07647      .   S
    C17    O329      1.03668      .   S
    C167   O329      1.03668      .   S
    C16    O330      1.07689      .   S
    C156   O330      1.07689      .   S
    C16    O331      1.03663      .   S
    C166   O331      1.03663      .   S
    C8     O332      1.01250      .   S
    C140   O332      1.01250      .   S
    C8     O333      1.00626      .   S
    C162   O333      1.00626      .   S
    C9     O334      1.01217      .   S
    C141   O334      1.01217      .   S
    C9     O335      1.00611      .   S
    C163   O335      1.00611      .   S
    C152   O336      0.62721      .   S
    C81    O336      0.62721  1_655   S
    C153   O337      0.62726      .   S
    C80    O337      0.62726      .   S
    C154   O338      0.63375      .   S
    C82    O338      0.63375      .   S
    C155   O339      0.63374      .   S
    C83    O339      0.63374      .   S
    C157   O340      0.63836      .   S
    C83    O340      0.63836      .   S
    C156   O341      0.63830      .   S
    C82    O341      0.63830      .   S
    C166   O342      0.63301      .   S
    C98    O342      0.63301      .   S
    C167   O343      0.63312      .   S
    C99    O343      0.63312      .   S
    C80    O344      0.64973      .   S
    C150   O344      0.64973      .   S
    C80    O345      0.74654      .   S
    C70    O345      0.74654      .   S
    C81    O346      0.64967      .   S
    C151   O346      0.64967      .   S
    C81    O347      0.74667      .   S
    C71    O347      0.74667      .   S
    C83    O348      0.75099      .   S
    C73    O348      0.75099      .   S
    C82    O349      0.75076      .   S
    C72    O349      0.75076      .   S
    C150   O350      1.00122      .   S
    C10    O350      1.00122      .   S
    C151   O351      1.00085      .   S
    C11    O351      1.00085      .   S
    C162   O352      0.63825      .   S
    C97    O352      0.63825      .   S
    C163   O353      0.63838      .   S
    C96    O353      0.63838  1_455   S
    C11    O354      1.03067      .   S
    C160   O354      1.03067  1_455   S
    C11    O355      0.99312      .   S
    C165   O355      0.99312      .   S
    C10    O356      1.03111      .   S
    C161   O356      1.03111      .   S
    C10    O357      0.99356      .   S
    C164   O357      0.99356      .   S
    C160   O358      0.63789      .   S
    C96    O358      0.63789      .   S
    C161   O359      0.63793      .   S
    C97    O359      0.63793      .   S
    C97    O360      0.75512      .   S
    C85    O360      0.75512      .   S
    C96    O361      0.75517      .   S
    C84    O361      0.75517      .   S
    C70    O362      0.70178      .   S
    C72    O362      0.70178      .   S
    C70    O363      0.69787      .   S
    C68    O363      0.69787      .   S
    C71    O364      0.70179      .   S
    C73    O364      0.70179      .   S
    C71    O365      0.69779      .   S
    C69    O365      0.69779      .   S
    C72    O366      0.70007      .   S
    C74    O366      0.70007      .   S
    C73    O367      0.69974      .   S
    C75    O367      0.69974      .   S
    C98    O368      0.64200      .   S
    C164   O368      0.64200      .   S
    C98    O369      0.75180      .   S
    C86    O369      0.75180      .   S
    C99    O370      0.64197      .   S
    C165   O370      0.64197      .   S
    C99    O371      0.75165      .   S
    C87    O371      0.75165      .   S
    C29    O372      0.54419      .   S
    C68    O372      0.54419      .   S
    C28    O373      0.54415      .   S
    C69    O373      0.54415  1_655   S
    C68    O374      0.69853      .   S
    C66    O374      0.69853      .   S
    C69    O375      0.69859      .   S
    C67    O375      0.69859      .   S
    C84    O376      0.70745      .   S
    C86    O376      0.70745      .   S
    C84    O377      0.69976      .   S
    C94    O377      0.69976      .   S
    C85    O378      0.70732      .   S
    C87    O378      0.70732      .   S
    C85    O379      0.69986      .   S
    C95    O379      0.69986      .   S
    C74    O380      0.54441      .   S
    C30    O380      0.54441      .   S
    C74    O381      0.69953      .   S
    C64    O381      0.69953      .   S
    C75    O382      0.54443      .   S
    C31    O382      0.54443      .   S
    C75    O383      0.69971      .   S
    C65    O383      0.69971      .   S
    C86    O384      0.69806      .   S
    C88    O384      0.69806      .   S
    C87    O385      0.69863      .   S
    C89    O385      0.69863      .   S
    C66    O386      0.70737      .   S
    C64    O386      0.70737      .   S
    C66    O387      0.75169      .   S
    C78    O387      0.75169      .   S
    C67    O388      0.70736      .   S
    C65    O388      0.70736      .   S
    C67    O389      0.75166      .   S
    C79    O389      0.75166      .   S
    C36    O390      0.54445      .   S
    C95    O390      0.54445      .   S
    C37    O391      0.54439      .   S
    C94    O391      0.54439  1_455   S
    C94    O392      0.69970      .   S
    C92    O392      0.69970      .   S
    C95    O393      0.69976      .   S
    C93    O393      0.69976      .   S
    C64    O394      0.75542      .   S
    C76    O394      0.75542      .   S
    C65    O395      0.75528      .   S
    C77    O395      0.75528      .   S
    C88    O396      0.54418      .   S
    C34    O396      0.54418      .   S
    C88    O397      0.69813      .   S
    C90    O397      0.69813      .   S
    C89    O398      0.54418      .   S
    C35    O398      0.54418      .   S
    C89    O399      0.69772      .   S
    C91    O399      0.69772      .   S
    C147   O400      0.64226      .   S
    C78    O400      0.64226      .   S
    C147   O401      0.99225      .   S
    C7     O401      0.99225  1_545   S
    C146   O402      0.64226      .   S
    C79    O402      0.64226  1_655   S
    C146   O403      0.99254      .   S
    C6     O403      0.99254  1_545   S
    C78    O404      0.63300      .   S
    C148   O404      0.63300      .   S
    C79    O405      0.63298      .   S
    C149   O405      0.63298      .   S
    C93    O406      0.70174      .   S
    C91    O406      0.70174      .   S
    C93    O407      0.75083      .   S
    C103   O407      0.75083      .   S
    C92    O408      0.70174      .   S
    C90    O408      0.70174      .   S
    C92    O409      0.75080      .   S
    C102   O409      0.75080      .   S
    C91    O410      0.74673      .   S
    C101   O410      0.74673      .   S
    C90    O411      0.74668      .   S
    C100   O411      0.74668      .   S
    C76    O412      0.63795      .   S
    C142   O412      0.63795      .   S
    C76    O413      0.63830      .   S
    C144   O413      0.63830      .   S
    C77    O414      0.63792      .   S
    C143   O414      0.63792      .   S
    C77    O415      0.63831      .   S
    C145   O415      0.63831      .   S
    C143   O416      1.03225      .   S
    C7     O416      1.03225  1_545   S
    C142   O417      1.03191      .   S
    C6     O417      1.03191  1_545   S
    C7     O418      1.00041      .   S
    C169   O418      1.00041      .   S
    C6     O419      1.00048      .   S
    C168   O419      1.00048      .   S
    C144   O420      1.00652      .   S
    C4     O420      1.00652      .   S
    C145   O421      1.00650      .   S
    C5     O421      1.00650      .   S
    C169   O422      0.64975      .   S
    C101   O422      0.64975      .   S
    C168   O423      0.64981      .   S
    C100   O423      0.64981      .   S
    C103   O424      0.63812      .   S
    C175   O424      0.63812      .   S
    C103   O425      0.63384      .   S
    C172   O425      0.63384      .   S
    C102   O426      0.63817      .   S
    C174   O426      0.63817      .   S
    C102   O427      0.63383  1_455   S
    C173   O427      0.63383      .   S
    C100   O428      0.62708      .   S
    C170   O428      0.62708      .   S
    C101   O429      0.62706      .   S
    C171   O429      0.62706      .   S
    C148   O430      1.03613      .   S
    C19    O430      1.03613  1_545   S
    C149   O431      1.03613      .   S
    C18    O431      1.03613  1_445   S
    C175   O432      1.07617      .   S
    C19    O432      1.07617      .   S
    C174   O433      1.07494      .   S
    C18    O433      1.07494      .   S
    C195   O434      1.01268      .   S
    C5     O434      1.01268      .   S
    C194   O435      1.01248      .   S
    C4     O435      1.01248      .   S
    C138   O436      1.12999      .   S
    C14    O436      1.12999      .   S
    C139   O437      1.13005      .   S
    C15    O437      1.13005      .   S
    C140   O438      1.03019      .   S
    C10    O438      1.03019      .   S
    C140   O439      1.04644      .   S
    C16    O439      1.04644      .   S
    C141   O440      1.03022      .   S
    C11    O440      1.03022      .   S
    C141   O441      1.04649      .   S
    C17    O441      1.04649      .   S
    C156   O442      1.12692      .   S
    C10    O442      1.12692      .   S
    C157   O443      1.12670      .   S
    C11    O443      1.12670      .   S
    C158   O444      1.03016      .   S
    C14    O444      1.03016  1_565   S
    C158   O445      1.04697      .   S
    C19    O445      1.04697  1_556   S
    C159   O446      1.02962      .   S
    C15    O446      1.02962  1_565   S
    C159   O447      1.04693      .   S
    C18    O447      1.04693  1_456   S
    C174   O448      1.13003      .   S
    C6     O448      1.13003      .   S
    C175   O449      1.12977      .   S
    C7     O449      1.12977      .   S
    C176   O450      1.03014      .   S
    C2     O450      1.03014      .   S
    C176   O451      1.04649      .   S
    C16    O451      1.04649      .   S
    C177   O452      1.03019      .   S
    C3     O452      1.03019      .   S
    C177   O453      1.04645      .   S
    C17    O453      1.04645      .   S
    C192   O454      1.12661      .   S
    C2     O454      1.12661      .   S
    C193   O455      1.12689      .   S
    C3     O455      1.12689      .   S
    C194   O456      1.02968      .   S
    C6     O456      1.02968  1_545   S
    C194   O457      1.04699      .   S
    C18    O457      1.04699  1_545   S
    C195   O458      1.02968      .   S
    C7     O458      1.02968  1_545   S
    C195   O459      1.04701      .   S
    C19    O459      1.04701  1_545   S
