# CIF file generated by openbabel 2.4.90, see http://openbabel.sf.net
data_I
_chemical_name_common ''
_cell_length_a 13.748
_cell_length_b 14.897
_cell_length_c 14.679
_cell_angle_alpha 107.387
_cell_angle_beta 112.496
_cell_angle_gamma 99.975
_space_group_name_H-M_alt 'P 1'
_space_group_name_Hall 'P 1'
loop_
    _symmetry_equiv_pos_as_xyz
    x,y,z
loop_
    _atom_site_label
    _atom_site_type_symbol
    _atom_site_fract_x
    _atom_site_fract_y
    _atom_site_fract_z
    _atom_site_occupancy
    Zn0     Zn   0.63164   0.03082   0.78657   1.000
    Zn1     Zn   0.51915   0.18235   0.42730   1.000
    Zn2     Zn   0.36899   0.96894   0.21347   1.000
    Zn3     Zn   0.50093   0.99998   0.50011   1.000
    H4      H    0.44880   0.98500   0.63747   1.000
    Zn5     Zn   0.48169   0.81735   0.57253   1.000
    H6      H    0.55227   0.01493   0.36205   1.000
    C7      C    0.28522   0.81496   0.41647   1.000
    C8      C    0.62036   0.83163   0.78874   1.000
    C9      C    0.66419   0.19875   0.89834   1.000
    C10     C    0.58797   0.82542   0.43989   1.000
    C11     C    0.71581   0.18505   0.58351   1.000
    C12     C    0.38030   0.16800   0.21117   1.000
    C13     C    0.33676   0.80103   0.10174   1.000
    C14     C    0.41312   0.17423   0.56017   1.000
    O15     O    0.32025   0.78190   0.49112   1.000
    O16     O    0.34656   0.87457   0.39918   1.000
    O17     O    0.67500   0.92392   0.82228   1.000
    O18     O    0.53765   0.77868   0.69621   1.000
    O19     O    0.73944   0.16885   0.87751   1.000
    O20     O    0.56989   0.13524   0.86487   1.000
    O21     O    0.55315   0.77232   0.48284   1.000
    O22     O    0.59322   0.91567   0.45970   1.000
    O23     O    0.51461   0.96876   0.63690   1.000
    O24     O    0.68068   0.21801   0.50880   1.000
    O25     O    0.65454   0.12543   0.60086   1.000
    O26     O    0.32550   0.07577   0.17773   1.000
    O27     O    0.46319   0.22087   0.30360   1.000
    O28     O    0.26144   0.83088   0.12249   1.000
    O29     O    0.43104   0.86457   0.13526   1.000
    O30     O    0.44769   0.22730   0.51705   1.000
    O31     O    0.40819   0.08407   0.54050   1.000
    O32     O    0.48652   0.03102   0.36301   1.000
loop_
    _geom_bond_atom_site_label_1
    _geom_bond_atom_site_label_2
    _geom_bond_distance
    _geom_bond_site_symmetry_2
    _ccdc_geom_bond_type
    C13    O28       1.29715      .   S
    C13    O29       1.27542      .   S
    O28    Zn2       1.99846      .   S
    O29    Zn2       2.14597      .   S
    O26    C12       1.28508      .   S
    O26    Zn2       1.93756  1_545   S
    C12    O27       1.27558      .   S
    Zn2    O32       1.95944  1_565   S
    O27    Zn1       1.98113      .   S
    H6     O32       0.97849      .   S
    O16    C7        1.26606      .   S
    O16    Zn3       2.18076      .   S
    C7     O15       1.29471      .   S
    Zn1    O24       1.95537      .   S
    Zn1    O30       1.95965      .   S
    C10    O22       1.27042      .   S
    C10    O21       1.28469      .   S
    O22    Zn3       2.05471      .   S
    O21    Zn5       1.95923      .   S
    O15    Zn5       1.95458      .   S
    Zn3    O31       2.05769  1_565   S
    Zn3    O25       2.17499  1_565   S
    O24    C11       1.29450      .   S
    O30    C14       1.28486      .   S
    O31    C14       1.27026      .   S
    Zn5    O18       1.98231      .   S
    C11    O25       1.26624      .   S
    O23    H4        0.97859      .   S
    O23    Zn0       1.95854  1_565   S
    O18    C8        1.27561      .   S
    Zn0    O17       1.93773  1_545   S
    Zn0    O20       2.14408      .   S
    Zn0    O19       1.99910      .   S
    C8     O17       1.28501      .   S
    O20    C9        1.27561      .   S
    O19    C9        1.29701      .   S
    O23    Zn5       2.05683      .   S
    O23    Zn3       2.14078      .   S
    O32    Zn1       2.05633      .   S
    O32    Zn3       2.14150  1_545   S
