# CIF file generated by openbabel 2.4.90, see http://openbabel.sf.net
data_I
_chemical_name_common ''
_cell_length_a 13.748
_cell_length_b 14.897
_cell_length_c 14.679
_cell_angle_alpha 107.387
_cell_angle_beta 112.496
_cell_angle_gamma 99.975
_space_group_name_H-M_alt 'P 1'
_space_group_name_Hall 'P 1'
loop_
    _symmetry_equiv_pos_as_xyz
    x,y,z
loop_
    _atom_site_label
    _atom_site_type_symbol
    _atom_site_fract_x
    _atom_site_fract_y
    _atom_site_fract_z
    _atom_site_occupancy
    C0      C    0.28522   0.81496   0.41647   1.000
    C1      C    0.62036   0.83163   0.78874   1.000
    C2      C    0.66419   0.19875   0.89834   1.000
    C3      C    0.58797   0.82542   0.43989   1.000
    C4      C    0.71581   0.18505   0.58351   1.000
    C5      C    0.38030   0.16800   0.21117   1.000
    C6      C    0.33676   0.80103   0.10174   1.000
    C7      C    0.41312   0.17423   0.56017   1.000
