# CIF file generated by openbabel 2.4.90, see http://openbabel.sf.net
data_I
_chemical_name_common ''
_cell_length_a 13.748
_cell_length_b 14.897
_cell_length_c 14.679
_cell_angle_alpha 107.387
_cell_angle_beta 112.496
_cell_angle_gamma 99.975
_space_group_name_H-M_alt 'P 1'
_space_group_name_Hall 'P 1'
loop_
    _symmetry_equiv_pos_as_xyz
    x,y,z
loop_
    _atom_site_label
    _atom_site_type_symbol
    _atom_site_fract_x
    _atom_site_fract_y
    _atom_site_fract_z
    _atom_site_occupancy
    N0      N    0.77975   0.65704   0.13073   1.000
    N1      N    0.22115   0.34273   0.86925   1.000
    Zr2     Zr   0.50048   0.99989   0.49998   1.000
    O3      O    0.40392   0.13516   0.61715   1.000
    O4      O    0.61439   0.22734   0.26474   1.000
    O5      O    0.59705   0.86458   0.38284   1.000
    O6      O    0.25105   0.86328   0.37809   1.000
    O7      O    0.74990   0.13656   0.62189   1.000
    O8      O    0.60505   0.86621   0.73958   1.000
    O9      O    0.39582   0.13353   0.26037   1.000
    O10     O    0.38656   0.77243   0.73526   1.000
loop_
    _geom_bond_atom_site_label_1
    _geom_bond_atom_site_label_2
    _geom_bond_distance
    _geom_bond_site_symmetry_2
    _ccdc_geom_bond_type
    Zr2    O3        3.06334  1_565   S
    N1     O3        5.70416      .   S
    Zr2    O4        5.92884  1_565   S
    N0     O4        7.47784      .   S
    Zr2    O5        3.06354      .   S
    N0     O5        5.70325      .   S
    Zr2    O6        3.13251      .   S
    N0     O6        5.74805  1_655   S
    Zr2    O7        3.13279  1_565   S
    N1     O7        5.74723  1_455   S
    Zr2    O8        4.43965      .   S
    N0     O8        7.15390  1_554   S
    Zr2    O9        4.43958  1_565   S
    N1     O9        7.15387  1_556   S
    Zr2    O10       5.92929      .   S
    N1     O10       7.47788      .   S
