# CIF file generated by openbabel 2.4.90, see http://openbabel.sf.net
data_I
_chemical_name_common ''
_cell_length_a 13.748
_cell_length_b 14.897
_cell_length_c 14.679
_cell_angle_alpha 107.387
_cell_angle_beta 112.496
_cell_angle_gamma 99.975
_space_group_name_H-M_alt 'P 1'
_space_group_name_Hall 'P 1'
loop_
    _symmetry_equiv_pos_as_xyz
    x,y,z
loop_
    _atom_site_label
    _atom_site_type_symbol
    _atom_site_fract_x
    _atom_site_fract_y
    _atom_site_fract_z
    _atom_site_occupancy
    Zr0     Zr   0.48169   0.81735   0.57253   1.000
    Zr1     Zr   0.63164   0.03082   0.78657   1.000
    Zr2     Zr   0.51915   0.18235   0.42730   1.000
    Zr3     Zr   0.36899   0.96894   0.21347   1.000
    Zr4     Zr   0.50093   0.99998   0.50011   1.000
    Zr5     Zr   0.44880   0.98500   0.63747   1.000
    Zr6     Zr   0.55227   0.01493   0.36205   1.000
    Zr7     Zr   0.28522   0.81496   0.41647   1.000
    Zr8     Zr   0.62036   0.83163   0.78874   1.000
    Zr9     Zr   0.66419   0.19875   0.89834   1.000
    Zr10    Zr   0.58797   0.82542   0.43989   1.000
    Zr11    Zr   0.71581   0.18505   0.58351   1.000
    Zr12    Zr   0.38030   0.16800   0.21117   1.000
    Zr13    Zr   0.33676   0.80103   0.10174   1.000
    Zr14    Zr   0.41312   0.17423   0.56017   1.000
    Zr15    Zr   0.32025   0.78190   0.49112   1.000
    Zr16    Zr   0.34656   0.87457   0.39918   1.000
    Zr17    Zr   0.67500   0.92392   0.82228   1.000
    Zr18    Zr   0.53765   0.77868   0.69621   1.000
    Zr19    Zr   0.73944   0.16885   0.87751   1.000
    Zr20    Zr   0.56989   0.13524   0.86487   1.000
    Zr21    Zr   0.55315   0.77232   0.48284   1.000
    Zr22    Zr   0.59322   0.91567   0.45970   1.000
    Zr23    Zr   0.51461   0.96876   0.63690   1.000
    Zr24    Zr   0.68068   0.21801   0.50880   1.000
    Zr25    Zr   0.65454   0.12543   0.60086   1.000
    Zr26    Zr   0.32550   0.07577   0.17773   1.000
    Zr27    Zr   0.46319   0.22087   0.30360   1.000
    Zr28    Zr   0.26144   0.83088   0.12249   1.000
    Zr29    Zr   0.43104   0.86457   0.13526   1.000
    Zr30    Zr   0.44769   0.22730   0.51705   1.000
    Zr31    Zr   0.40819   0.08407   0.54050   1.000
    Zr32    Zr   0.48652   0.03102   0.36301   1.000
    O33     O    0.29910   0.81595   0.11212   1.000
    O34     O    0.38390   0.83280   0.11850   1.000
    O35     O    0.31522   0.89991   0.16798   1.000
    O36     O    0.40002   0.91676   0.17436   1.000
    O37     O    0.35290   0.12189   0.19445   1.000
    O38     O    0.34725   0.02236   0.19560   1.000
    O39     O    0.42175   0.19444   0.25738   1.000
    O40     O    0.42776   0.99998   0.28824   1.000
    O41     O    0.49117   0.20161   0.36545   1.000
    O42     O    0.51939   0.02297   0.36253   1.000
    O43     O    0.31589   0.84477   0.40782   1.000
    O44     O    0.42374   0.93727   0.44965   1.000
    O45     O    0.30273   0.79843   0.45379   1.000
    O46     O    0.59992   0.20018   0.46805   1.000
    O47     O    0.48342   0.20483   0.47218   1.000
    O48     O    0.59060   0.87055   0.44980   1.000
    O49     O    0.57056   0.79887   0.46136   1.000
    O50     O    0.54708   0.95783   0.47991   1.000
    O51     O    0.51742   0.79483   0.52768   1.000
    O52     O    0.40097   0.79962   0.53182   1.000
    O53     O    0.45456   0.04202   0.52031   1.000
    O54     O    0.57774   0.06270   0.55049   1.000
    O55     O    0.69824   0.20153   0.54616   1.000
    O56     O    0.43041   0.20077   0.53861   1.000
    O57     O    0.41066   0.12915   0.55034   1.000
    O58     O    0.50967   0.79801   0.63437   1.000
    O59     O    0.68518   0.15524   0.59218   1.000
    O60     O    0.48171   0.97688   0.63719   1.000
    O61     O    0.57313   0.99979   0.71173   1.000
    O62     O    0.57900   0.80515   0.74247   1.000
    O63     O    0.65332   0.97736   0.80442   1.000
    O64     O    0.60077   0.08303   0.82572   1.000
    O65     O    0.68554   0.09983   0.83204   1.000
    O66     O    0.64768   0.87777   0.80551   1.000
    O67     O    0.61704   0.16700   0.88160   1.000
    O68     O    0.70182   0.18380   0.88793   1.000
    O69     O    0.49815   0.89305   0.60472   1.000
    O70     O    0.50777   0.98437   0.56851   1.000
    O71     O    0.50284   0.10669   0.39515   1.000
    O72     O    0.49373   0.01550   0.43156   1.000
    N73     N    0.77975   0.65704   0.13073   1.000
    O74     O    0.72830   0.45480   0.02949   1.000
    O75     O    0.70963   0.73253   0.97918   1.000
    O76     O    0.00163   0.72667   0.25619   1.000
    O77     O    0.69362   0.72928   0.26569   1.000
    N78     N    0.22115   0.34273   0.86925   1.000
    O79     O    0.27263   0.54498   0.97054   1.000
    O80     O    0.29116   0.26717   0.02076   1.000
    O81     O    0.30735   0.27043   0.73433   1.000
    O82     O    0.99932   0.27324   0.74380   1.000
loop_
    _geom_bond_atom_site_label_1
    _geom_bond_atom_site_label_2
    _geom_bond_distance
    _geom_bond_site_symmetry_2
    _ccdc_geom_bond_type
    Zr13   O33       0.64858      .   S
    Zr28   O33       0.64858      .   S
    Zr13   O34       0.63771      .   S
    Zr29   O34       0.63771      .   S
    Zr28   O35       0.99923      .   S
    Zr3    O35       0.99923      .   S
    Zr29   O36       1.07298      .   S
    Zr3    O36       1.07298      .   S
    Zr26   O37       0.64254      .   S
    Zr12   O37       0.64254      .   S
    Zr26   O38       0.96878      .   S
    Zr3    O38       0.96878  1_565   S
    Zr12   O39       0.63779      .   S
    Zr27   O39       0.63779      .   S
    Zr3    O40       0.97972      .   S
    Zr32   O40       0.97972  1_545   S
    Zr27   O41       0.99057      .   S
    Zr2    O41       0.99057      .   S
    Zr6    O42       0.48925      .   S
    Zr32   O42       0.48925      .   S
    Zr16   O43       0.63303      .   S
    Zr7    O43       0.63303      .   S
    Zr16   O44       1.09038      .   S
    Zr4    O44       1.09038      .   S
    Zr7    O45       0.64735      .   S
    Zr15   O45       0.64735      .   S
    Zr2    O46       0.97768      .   S
    Zr24   O46       0.97768      .   S
    Zr2    O47       0.97982      .   S
    Zr30   O47       0.97982      .   S
    Zr10   O48       0.63521      .   S
    Zr22   O48       0.63521      .   S
    Zr10   O49       0.64235      .   S
    Zr21   O49       0.64235      .   S
    Zr22   O50       1.02735      .   S
    Zr4    O50       1.02735      .   S
    Zr21   O51       0.97961      .   S
    Zr0    O51       0.97961      .   S
    Zr15   O52       0.97729      .   S
    Zr0    O52       0.97729      .   S
    Zr4    O53       1.02885  1_565   S
    Zr31   O53       1.02885      .   S
    Zr4    O54       1.08749  1_565   S
    Zr25   O54       1.08749      .   S
    Zr24   O55       0.64725      .   S
    Zr11   O55       0.64725      .   S
    Zr30   O56       0.64243      .   S
    Zr14   O56       0.64243      .   S
    Zr31   O57       0.63513      .   S
    Zr14   O57       0.63513      .   S
    Zr0    O58       0.99116      .   S
    Zr18   O58       0.99116      .   S
    Zr11   O59       0.63312      .   S
    Zr25   O59       0.63312      .   S
    Zr23   O60       0.48929      .   S
    Zr5    O60       0.48929      .   S
    Zr23   O61       0.97927      .   S
    Zr1    O61       0.97927  1_545   S
    Zr18   O62       0.63780      .   S
    Zr8    O62       0.63780      .   S
    Zr1    O63       0.96886  1_545   S
    Zr17   O63       0.96886      .   S
    Zr1    O64       1.07204      .   S
    Zr20   O64       1.07204      .   S
    Zr1    O65       0.99955      .   S
    Zr19   O65       0.99955      .   S
    Zr8    O66       0.64250      .   S
    Zr17   O66       0.64250      .   S
    Zr20   O67       0.63781      .   S
    Zr9    O67       0.63781      .   S
    Zr19   O68       0.64851      .   S
    Zr9    O68       0.64851      .   S
    Zr23   O69       1.02842      .   S
    Zr0    O69       1.02842      .   S
    Zr23   O70       1.07039      .   S
    Zr4    O70       1.07039      .   S
    Zr32   O71       1.02816      .   S
    Zr2    O71       1.02816      .   S
    Zr32   O72       1.07075      .   S
    Zr4    O72       1.07075  1_565   S
    N73    O74       2.75085      .   S
    Zr9    O74       3.49006  1_556   S
    N73    O75       2.71537  1_554   S
    Zr8    O75       3.45959      .   S
    N73    O76       2.68999  1_655   S
    Zr7    O76       3.43808      .   S
    N73    O77       2.72881      .   S
    Zr10   O77       3.47480      .   S
    N78    O79       2.75088      .   S
    Zr13   O79       3.49016  1_554   S
    N78    O80       2.71535  1_556   S
    Zr12   O80       3.45993      .   S
    N78    O81       2.72959      .   S
    Zr14   O81       3.47570      .   S
    N78    O82       2.68933  1_455   S
    Zr11   O82       3.43733      .   S
