# CIF file generated by openbabel 2.4.90, see http://openbabel.sf.net
data_I
_chemical_name_common ''
_cell_length_a 6.9295
_cell_length_b 13.793
_cell_length_c 21.991
_cell_angle_alpha 89.959
_cell_angle_beta 89.755
_cell_angle_gamma 89.82
_space_group_name_H-M_alt 'P 1'
_space_group_name_Hall 'P 1'
loop_
    _symmetry_equiv_pos_as_xyz
    x,y,z
loop_
    _atom_site_label
    _atom_site_type_symbol
    _atom_site_fract_x
    _atom_site_fract_y
    _atom_site_fract_z
    _atom_site_occupancy
    Lv0     Lv   0.28831   0.83223   0.01912   1.000
    Lv1     Lv   0.75549   0.58414   0.81447   1.000
    Lv2     Lv   0.30246   0.12581   0.66722   1.000
    Lv3     Lv   0.20903   0.33221   0.01951   1.000
    Lv4     Lv   0.69522   0.87225   0.16767   1.000
    Lv5     Lv   0.80267   0.37215   0.16734   1.000
    Lv6     Lv   0.74160   0.08306   0.81525   1.000
    Lv7     Lv   0.19625   0.62540   0.66688   1.000
    Lv8     Lv   0.71202   0.16520   0.51959   1.000
    Lv9     Lv   0.25682   0.92947   0.31519   1.000
    Lv10    Lv   0.78994   0.66565   0.51952   1.000
    Lv11    Lv   0.24249   0.41543   0.31470   1.000
