# CIF file generated by openbabel 2.4.90, see http://openbabel.sf.net
data_I
_chemical_name_common ''
_cell_length_a 6.9295
_cell_length_b 13.793
_cell_length_c 21.991
_cell_angle_alpha 89.959
_cell_angle_beta 89.755
_cell_angle_gamma 89.82
_space_group_name_H-M_alt 'P 1'
_space_group_name_Hall 'P 1'
loop_
    _symmetry_equiv_pos_as_xyz
    x,y,z
loop_
    _atom_site_label
    _atom_site_type_symbol
    _atom_site_fract_x
    _atom_site_fract_y
    _atom_site_fract_z
    _atom_site_occupancy
    H0      H    0.29342   0.78980   0.05151   1.000
    H1      H    0.28727   0.89330   0.00168   1.000
    H2      H    0.75196   0.54191   0.78199   1.000
    H3      H    0.75612   0.64512   0.83201   1.000
    H4      H    0.10562   0.89325   0.73529   1.000
    H5      H    0.08743   0.78559   0.64370   1.000
    H6      H    0.29611   0.55252   0.75838   1.000
    H7      H    0.31171   0.66991   0.84297   1.000
    H8      H    0.05652   0.47218   0.68929   1.000
    H9      H    0.06409   0.36314   0.59805   1.000
    H10     H    0.32307   0.57385   0.49164   1.000
    H11     H    0.31752   0.69306   0.57585   1.000
    H12     H    0.70646   0.20767   0.55192   1.000
    H13     H    0.71438   0.10410   0.50227   1.000
    H14     H    0.24736   0.45831   0.28252   1.000
    H15     H    0.24008   0.35411   0.33179   1.000
    H16     H    0.89074   0.10415   0.23552   1.000
    H17     H    0.90883   0.21187   0.14384   1.000
    H18     H    0.70671   0.44562   0.25943   1.000
    H19     H    0.69100   0.32814   0.34418   1.000
    H20     H    0.94227   0.52555   0.18903   1.000
    H21     H    0.93518   0.63413   0.09748   1.000
    H22     H    0.67517   0.42324   0.99237   1.000
    H23     H    0.67996   0.30441   0.07688   1.000
    H24     H    0.20330   0.28926   0.05163   1.000
    H25     H    0.21064   0.39357   0.00248   1.000
    H26     H    0.74591   0.04100   0.78271   1.000
    H27     H    0.73932   0.14396   0.83285   1.000
    H28     H    0.39418   0.39353   0.73487   1.000
    H29     H    0.41064   0.28550   0.64336   1.000
    H30     H    0.20494   0.05339   0.75939   1.000
    H31     H    0.19022   0.17120   0.84383   1.000
    H32     H    0.44350   0.97244   0.68901   1.000
    H33     H    0.43506   0.86332   0.59789   1.000
    H34     H    0.17186   0.07394   0.49262   1.000
    H35     H    0.17768   0.19330   0.57674   1.000
    H36     H    0.79607   0.70852   0.55160   1.000
    H37     H    0.78854   0.60433   0.50250   1.000
    H38     H    0.25277   0.00000   0.28282   1.000
    H39     H    0.25837   0.85434   0.33255   1.000
    H40     H    0.60122   0.60513   0.23635   1.000
    H41     H    0.58602   0.71274   0.14454   1.000
    H42     H    0.79519   0.94476   0.25924   1.000
    H43     H    0.80849   0.82732   0.34400   1.000
    H44     H    0.55712   0.02615   0.18978   1.000
    H45     H    0.56543   0.13496   0.09833   1.000
    H46     H    0.82319   0.92288   0.99232   1.000
    H47     H    0.81709   0.80384   0.07672   1.000
    C48     C    0.28425   0.81358   0.00416   1.000
    C49     C    0.75838   0.56539   0.82942   1.000
    C50     C    0.15000   0.81753   0.73742   1.000
    C51     C    0.13888   0.75715   0.68700   1.000
    C52     C    0.19215   0.65931   0.69292   1.000
    C53     C    0.25273   0.62713   0.75016   1.000
    C54     C    0.26284   0.69241   0.79810   1.000
    C55     C    0.18884   0.59219   0.64056   1.000
    C56     C    0.11736   0.49747   0.64631   1.000
    C57     C    0.12267   0.43625   0.59617   1.000
    C58     C    0.26473   0.55452   0.53610   1.000
    C59     C    0.26096   0.62069   0.58375   1.000
    C60     C    0.71523   0.18385   0.50457   1.000
    C61     C    0.24003   0.43388   0.32979   1.000
    C62     C    0.84756   0.18002   0.23786   1.000
    C63     C    0.85859   0.24040   0.18736   1.000
    C64     C    0.80679   0.33840   0.19349   1.000
    C65     C    0.74843   0.37081   0.25105   1.000
    C66     C    0.73830   0.30546   0.29906   1.000
    C67     C    0.80954   0.40538   0.14100   1.000
    C68     C    0.88127   0.50009   0.14630   1.000
    C69     C    0.87623   0.56109   0.09603   1.000
    C70     C    0.73354   0.44263   0.03665   1.000
    C71     C    0.73699   0.37672   0.08448   1.000
    C72     C    0.21316   0.31380   0.00443   1.000
    C73     C    0.73956   0.06423   0.83020   1.000
    C74     C    0.34988   0.31795   0.73734   1.000
    C75     C    0.36008   0.25739   0.68695   1.000
    C76     C    0.30693   0.15973   0.69325   1.000
    C77     C    0.24791   0.12789   0.75086   1.000
    C78     C    0.23844   0.19342   0.79873   1.000
    C79     C    0.30898   0.09249   0.64092   1.000
    C80     C    0.38137   0.99773   0.64634   1.000
    C81     C    0.37557   0.93643   0.59628   1.000
    C82     C    0.23104   0.05469   0.53686   1.000
    C83     C    0.23508   0.12091   0.58446   1.000
    C84     C    0.78520   0.68410   0.50445   1.000
    C85     C    0.25931   0.93409   0.33020   1.000
    C86     C    0.64645   0.68059   0.23843   1.000
    C87     C    0.63699   0.74092   0.18789   1.000
    C88     C    0.69118   0.83845   0.19377   1.000
    C89     C    0.75117   0.87037   0.25107   1.000
    C90     C    0.75976   0.80507   0.29911   1.000
    C91     C    0.68890   0.90547   0.14130   1.000
    C92     C    0.61798   0.00050   0.14687   1.000
    C93     C    0.62371   0.06159   0.09665   1.000
    C94     C    0.76514   0.94251   0.03678   1.000
    C95     C    0.76093   0.87647   0.08454   1.000
    N96     N    0.21380   0.78651   0.79199   1.000
    N97     N    0.19794   0.46328   0.54203   1.000
    N98     N    0.78531   0.21114   0.29271   1.000
    N99     N    0.80096   0.53379   0.04217   1.000
    N100    N    0.28697   0.28741   0.79224   1.000
    N101    N    0.29896   0.96344   0.54247   1.000
    N102    N    0.70957   0.71127   0.29307   1.000
    N103    N    0.69892   0.03404   0.04260   1.000
loop_
    _geom_bond_atom_site_label_1
    _geom_bond_atom_site_label_2
    _geom_bond_distance
    _geom_bond_site_symmetry_2
    _ccdc_geom_bond_type
    H1     C48       1.10121      .   S
    H25    C72       1.10111      .   S
    C48    H0        1.09347      .   S
    C72    H24       1.09345      .   S
    C70    N99       1.34841      .   S
    C70    C71       1.39000      .   S
    C70    H22       1.08997  1_554   S
    C94    N103      1.34783  1_565   S
    C94    C95       1.39004      .   S
    C94    H46       1.08983  1_554   S
    N99    C69       1.35064      .   S
    N103   C93       1.35032      .   S
    H47    C95       1.08712      .   S
    H23    C71       1.08718      .   S
    C71    C67       1.40044      .   S
    C95    C91       1.40031      .   S
    C69    H21       1.08891      .   S
    C69    C68       1.38918      .   S
    C93    H45       1.08892      .   S
    C93    C92       1.38922      .   S
    C67    C68       1.40419      .   S
    C67    C64       1.47811      .   S
    C91    C92       1.40369  1_565   S
    C91    C88       1.47812      .   S
    H17    C63       1.09047      .   S
    H41    C87       1.09051      .   S
    C68    H20       1.09074      .   S
    C92    H44       1.09071      .   S
    C63    C64       1.40391      .   S
    C63    C62       1.38958      .   S
    C87    C88       1.40392      .   S
    C87    C86       1.38956      .   S
    C64    C65       1.40032      .   S
    C88    C89       1.40037      .   S
    H16    C62       1.08877      .   S
    H40    C86       1.08890      .   S
    C62    N98       1.34914      .   S
    C86    N102      1.34937      .   S
    C65    H18       1.08646      .   S
    C65    C66       1.38933      .   S
    C89    H42       1.08665      .   S
    C89    C90       1.38920      .   S
    H14    C61       1.09348      .   S
    H38    C85       1.38308  1_545   S
    N98    C66       1.34736      .   S
    N102   C90       1.34752      .   S
    C66    H19       1.08935      .   S
    C90    H43       1.08922      .   S
    C61    H15       1.10118      .   S
    C85    H39       1.10127      .   S
    H10    C58       1.08971      .   S
    H34    C82       1.08960      .   S
    H13    C60       1.10122      .   S
    H37    C84       1.10119      .   S
    C84    H36       1.09341      .   S
    C60    H12       1.09345      .   S
    C58    N97       1.34827      .   S
    C58    C59       1.39020      .   S
    C82    N101      1.34803  1_545   S
    C82    C83       1.39017      .   S
    N97    C57       1.35046      .   S
    N101   C81       1.35073      .   S
    H11    C59       1.08713      .   S
    H35    C83       1.08713      .   S
    C59    C55       1.40015      .   S
    C83    C79       1.40037      .   S
    C57    H9        1.08891      .   S
    C57    C56       1.38944      .   S
    C81    H33       1.08878      .   S
    C81    C80       1.38938      .   S
    C55    C56       1.40416      .   S
    C55    C52       1.47823      .   S
    C79    C80       1.40361  1_545   S
    C79    C76       1.47855      .   S
    H29    C75       1.09059      .   S
    H5     C51       1.09048      .   S
    C56    H8        1.09079      .   S
    C80    H32       1.09075      .   S
    C75    C76       1.40406      .   S
    C75    C74       1.38979      .   S
    C51    C52       1.40404      .   S
    C51    C50       1.38958      .   S
    C52    C53       1.40016      .   S
    C76    C77       1.40041      .   S
    H28    C74       1.08889      .   S
    H4     C50       1.08882      .   S
    C74    N100      1.34945      .   S
    C50    N96       1.34949      .   S
    C53    H6        1.08638      .   S
    C53    C54       1.38898      .   S
    C77    H30       1.08664      .   S
    C77    C78       1.38929      .   S
    H2     C49       1.09351      .   S
    H26    C73       1.09338      .   S
    N96    C54       1.34745      .   S
    N100   C78       1.34759      .   S
    C54    H7        1.08918      .   S
    C78    H31       1.08936      .   S
    C49    H3        1.10123      .   S
    C73    H27       1.10131      .   S
