# CIF file generated by openbabel 2.4.90, see http://openbabel.sf.net
data_I
_chemical_name_common ''
_cell_length_a 6.9295
_cell_length_b 13.793
_cell_length_c 21.991
_cell_angle_alpha 89.959
_cell_angle_beta 89.755
_cell_angle_gamma 89.82
_space_group_name_H-M_alt 'P 1'
_space_group_name_Hall 'P 1'
loop_
    _symmetry_equiv_pos_as_xyz
    x,y,z
loop_
    _atom_site_label
    _atom_site_type_symbol
    _atom_site_fract_x
    _atom_site_fract_y
    _atom_site_fract_z
    _atom_site_occupancy
    Zn0     Zn   0.78408   0.62921   0.96745   1.000
    Zn1     Zn   0.75047   0.11729   0.36771   1.000
    Zn2     Zn   0.21575   0.36732   0.46705   1.000
    Zn3     Zn   0.25122   0.38168   0.86688   1.000
    Zn4     Zn   0.71591   0.12910   0.96768   1.000
    Zn5     Zn   0.74330   0.61695   0.36778   1.000
    Zn6     Zn   0.28386   0.86806   0.46716   1.000
    H7      H    0.29342   0.78980   0.05151   1.000
    H8      H    0.28727   0.89330   0.00168   1.000
    H9      H    0.75196   0.54191   0.78199   1.000
    H10     H    0.75612   0.64512   0.83201   1.000
    H11     H    0.10562   0.89325   0.73529   1.000
    H12     H    0.08743   0.78559   0.64370   1.000
    H13     H    0.29611   0.55252   0.75838   1.000
    H14     H    0.31171   0.66991   0.84297   1.000
    H15     H    0.05652   0.47218   0.68929   1.000
    H16     H    0.06409   0.36314   0.59805   1.000
    H17     H    0.32307   0.57385   0.49164   1.000
    H18     H    0.31752   0.69306   0.57585   1.000
    H19     H    0.70646   0.20767   0.55192   1.000
    H20     H    0.71438   0.10410   0.50227   1.000
    H21     H    0.24736   0.45831   0.28252   1.000
    H22     H    0.24008   0.35411   0.33179   1.000
    H23     H    0.89074   0.10415   0.23552   1.000
    H24     H    0.90883   0.21187   0.14384   1.000
    H25     H    0.70671   0.44562   0.25943   1.000
    H26     H    0.69100   0.32814   0.34418   1.000
    H27     H    0.94227   0.52555   0.18903   1.000
    H28     H    0.93518   0.63413   0.09748   1.000
    H29     H    0.67517   0.42324   0.99237   1.000
    H30     H    0.67996   0.30441   0.07688   1.000
    H31     H    0.20330   0.28926   0.05163   1.000
    Zn32    Zn   0.24778   0.87949   0.86684   1.000
    H33     H    0.21064   0.39357   0.00248   1.000
    H34     H    0.74591   0.04100   0.78271   1.000
    H35     H    0.73932   0.14396   0.83285   1.000
    H36     H    0.39418   0.39353   0.73487   1.000
    H37     H    0.41064   0.28550   0.64336   1.000
    H38     H    0.20494   0.05339   0.75939   1.000
    H39     H    0.19022   0.17120   0.84383   1.000
    H40     H    0.44350   0.97244   0.68901   1.000
    H41     H    0.43506   0.86332   0.59789   1.000
    H42     H    0.17186   0.07394   0.49262   1.000
    H43     H    0.17768   0.19330   0.57674   1.000
    H44     H    0.79607   0.70852   0.55160   1.000
    H45     H    0.78854   0.60433   0.50250   1.000
    H46     H    0.25277   0.00000   0.28282   1.000
    H47     H    0.25837   0.85434   0.33255   1.000
    H48     H    0.60122   0.60513   0.23635   1.000
    H49     H    0.58602   0.71274   0.14454   1.000
    H50     H    0.79519   0.94476   0.25924   1.000
    H51     H    0.80849   0.82732   0.34400   1.000
    H52     H    0.55712   0.02615   0.18978   1.000
    H53     H    0.56543   0.13496   0.09833   1.000
    H54     H    0.82319   0.92288   0.99232   1.000
    H55     H    0.81709   0.80384   0.07672   1.000
    C56     C    0.45630   0.77420   0.96767   1.000
    C57     C    0.28425   0.81358   0.00416   1.000
    C58     C    0.09861   0.77740   0.97511   1.000
    C59     C    0.58381   0.52684   0.86491   1.000
    C60     C    0.75838   0.56539   0.82942   1.000
    C61     C    0.94198   0.52808   0.85939   1.000
    C62     C    0.15000   0.81753   0.73742   1.000
    C63     C    0.13888   0.75715   0.68700   1.000
    C64     C    0.19215   0.65931   0.69292   1.000
    C65     C    0.25273   0.62713   0.75016   1.000
    C66     C    0.26284   0.69241   0.79810   1.000
    C67     C    0.18884   0.59219   0.64056   1.000
    C68     C    0.11736   0.49747   0.64631   1.000
    C69     C    0.12267   0.43625   0.59617   1.000
    C70     C    0.26473   0.55452   0.53610   1.000
    C71     C    0.26096   0.62069   0.58375   1.000
    C72     C    0.54153   0.22211   0.46880   1.000
    C73     C    0.71523   0.18385   0.50457   1.000
    C74     C    0.89947   0.22106   0.47466   1.000
    C75     C    0.41493   0.47075   0.36517   1.000
    C76     C    0.24003   0.43388   0.32979   1.000
    C77     C    0.05681   0.47164   0.36039   1.000
    C78     C    0.84756   0.18002   0.23786   1.000
    C79     C    0.85859   0.24040   0.18736   1.000
    C80     C    0.80679   0.33840   0.19349   1.000
    C81     C    0.74843   0.37081   0.25105   1.000
    C82     C    0.73830   0.30546   0.29906   1.000
    C83     C    0.80954   0.40538   0.14100   1.000
    C84     C    0.88127   0.50009   0.14630   1.000
    C85     C    0.87623   0.56109   0.09603   1.000
    C86     C    0.73354   0.44263   0.03665   1.000
    C87     C    0.73699   0.37672   0.08448   1.000
    C88     C    0.04140   0.27563   0.96789   1.000
    C89     C    0.21316   0.31380   0.00443   1.000
    C90     C    0.39921   0.27751   0.97497   1.000
    C91     C    0.91561   0.02633   0.86493   1.000
    C92     C    0.73956   0.06423   0.83020   1.000
    C93     C    0.55728   0.02603   0.86089   1.000
    C94     C    0.34988   0.31795   0.73734   1.000
    C95     C    0.36008   0.25739   0.68695   1.000
    C96     C    0.30693   0.15973   0.69325   1.000
    C97     C    0.24791   0.12789   0.75086   1.000
    C98     C    0.23844   0.19342   0.79873   1.000
    C99     C    0.30898   0.09249   0.64092   1.000
    C100    C    0.38137   0.99773   0.64634   1.000
    C101    C    0.37557   0.93643   0.59628   1.000
    C102    C    0.23104   0.05469   0.53686   1.000
    C103    C    0.23508   0.12091   0.58446   1.000
    C104    C    0.95612   0.72256   0.46712   1.000
    C105    C    0.78520   0.68410   0.50445   1.000
    C106    C    0.59826   0.72012   0.47595   1.000
    C107    C    0.08388   0.97224   0.36561   1.000
    C108    C    0.25931   0.93409   0.33020   1.000
    C109    C    0.44211   0.00000   0.36037   1.000
    C110    C    0.64645   0.68059   0.23843   1.000
    C111    C    0.63699   0.74092   0.18789   1.000
    C112    C    0.69118   0.83845   0.19377   1.000
    C113    C    0.75117   0.87037   0.25107   1.000
    C114    C    0.75976   0.80507   0.29911   1.000
    C115    C    0.68890   0.90547   0.14130   1.000
    C116    C    0.61798   0.00050   0.14687   1.000
    C117    C    0.62371   0.06159   0.09665   1.000
    C118    C    0.76514   0.94251   0.03678   1.000
    C119    C    0.76093   0.87647   0.08454   1.000
    N120    N    0.21380   0.78651   0.79199   1.000
    N121    N    0.19794   0.46328   0.54203   1.000
    N122    N    0.78531   0.21114   0.29271   1.000
    N123    N    0.80096   0.53379   0.04217   1.000
    N124    N    0.28697   0.28741   0.79224   1.000
    N125    N    0.29896   0.96344   0.54247   1.000
    N126    N    0.70957   0.71127   0.29307   1.000
    N127    N    0.69892   0.03404   0.04260   1.000
    O128    O    0.46829   0.79552   0.91171   1.000
    O129    O    0.57452   0.72129   0.00000   1.000
    O130    O    0.05348   0.80842   0.92258   1.000
    O131    O    0.99953   0.71620   0.00517   1.000
    O132    O    0.56735   0.54901   0.92063   1.000
    O133    O    0.46639   0.47421   0.83531   1.000
    O134    O    0.98369   0.55793   0.91240   1.000
    O135    O    0.04137   0.46651   0.82942   1.000
    O136    O    0.52721   0.19962   0.41312   1.000
    O137    O    0.42429   0.27559   0.49847   1.000
    O138    O    0.94290   0.19126   0.42164   1.000
    O139    O    0.99912   0.28190   0.50446   1.000
    O140    O    0.43251   0.44643   0.42051   1.000
    O141    O    0.53205   0.52455   0.33596   1.000
    O142    O    0.01591   0.44186   0.41358   1.000
    O143    O    0.95738   0.53312   0.33062   1.000
    O144    O    0.02798   0.29929   0.91233   1.000
    O145    O    0.92487   0.22129   0.00000   1.000
    O146    O    0.44330   0.30824   0.92222   1.000
    O147    O    0.49956   0.21665   0.00493   1.000
    O148    O    0.93305   0.04951   0.92045   1.000
    O149    O    0.03303   0.97314   0.83521   1.000
    O150    O    0.51669   0.05438   0.91442   1.000
    O151    O    0.45822   0.96521   0.83074   1.000
    O152    O    0.96625   0.70066   0.41123   1.000
    O153    O    0.07535   0.77520   0.49601   1.000
    O154    O    0.55046   0.68782   0.42399   1.000
    O155    O    0.50058   0.78251   0.50567   1.000
    O156    O    0.06722   0.94988   0.42133   1.000
    O157    O    0.96600   0.02493   0.33602   1.000
    O158    O    0.48358   0.94141   0.41342   1.000
    O159    O    0.54095   0.03299   0.33053   1.000
loop_
    _geom_bond_atom_site_label_1
    _geom_bond_atom_site_label_2
    _geom_bond_distance
    _geom_bond_site_symmetry_2
    _ccdc_geom_bond_type
    O145   Zn4       2.05917  1_554   S
    O145   C88       1.30791  1_654   S
    O129   Zn0       2.05307  1_554   S
    O129   C56       1.30744  1_554   S
    H8     C57       1.10121      .   S
    H33    C89       1.10111      .   S
    C57    H7        1.09347      .   S
    C57    C56       1.53256  1_554   S
    C57    C58       1.52433  1_554   S
    C89    H31       1.09345      .   S
    C89    C88       1.53369  1_554   S
    C89    C90       1.52374  1_554   S
    O147   Zn4       2.08723  1_554   S
    O147   C90       1.27352  1_554   S
    O131   Zn0       2.09285  1_554   S
    O131   C58       1.27269  1_654   S
    C86    N123      1.34841      .   S
    C86    C87       1.39000      .   S
    C86    H29       1.08997  1_554   S
    C118   N127      1.34783  1_565   S
    C118   C119      1.39004      .   S
    C118   H54       1.08983  1_554   S
    N123   C85       1.35064      .   S
    N123   Zn0       2.10795  1_554   S
    N127   C117      1.35032      .   S
    N127   Zn4       2.10804  1_554   S
    H55    C119      1.08712      .   S
    H30    C87       1.08718      .   S
    C87    C83       1.40044      .   S
    C119   C115      1.40031      .   S
    C85    H28       1.08891      .   S
    C85    C84       1.38918      .   S
    C117   H53       1.08892      .   S
    C117   C116      1.38922      .   S
    C83    C84       1.40419      .   S
    C83    C80       1.47811      .   S
    C115   C116      1.40369  1_565   S
    C115   C112      1.47812      .   S
    H24    C79       1.09047      .   S
    H49    C111      1.09051      .   S
    C84    H27       1.09074      .   S
    C116   H52       1.09071      .   S
    C79    C80       1.40391      .   S
    C79    C78       1.38958      .   S
    C111   C112      1.40392      .   S
    C111   C110      1.38956      .   S
    C80    C81       1.40032      .   S
    C112   C113      1.40037      .   S
    H23    C78       1.08877      .   S
    H48    C110      1.08890      .   S
    C78    N122      1.34914      .   S
    C110   N126      1.34937      .   S
    C81    H25       1.08646      .   S
    C81    C82       1.38933      .   S
    C113   H50       1.08665      .   S
    C113   C114      1.38920      .   S
    H21    C76       1.09348      .   S
    H46    C108      1.38308  1_545   S
    N122   C82       1.34736      .   S
    N122   Zn1       2.10942      .   S
    N126   C114      1.34752      .   S
    N126   Zn5       2.10826      .   S
    C82    H26       1.08935      .   S
    C114   H51       1.08922      .   S
    C76    H22       1.10118      .   S
    C76    C77       1.52483      .   S
    C76    C75       1.53137      .   S
    C108   H47       1.10127      .   S
    C108   C109      1.69897  1_565   S
    C108   C107      1.53286      .   S
    O159   C109      1.05091      .   S
    O159   Zn1       2.03733      .   S
    O143   C77       1.27339  1_655   S
    O143   Zn5       2.04593      .   S
    O141   C75       1.27299      .   S
    O141   Zn5       2.06846      .   S
    O157   C107      1.27235  1_645   S
    O157   Zn1       2.07839      .   S
    C109   O158      1.44816  1_545   S
    C77    O142      1.27069      .   S
    C75    O140      1.26849      .   S
    C107   O156      1.26818      .   S
    Zn1    O136      2.15815      .   S
    Zn1    O138      2.06137      .   S
    Zn5    O152      2.15827      .   S
    Zn5    O154      2.06115      .   S
    O152   C104      1.26743      .   S
    O136   C72       1.26792      .   S
    O158   Zn6       2.08050      .   S
    O142   Zn2       2.08818      .   S
    O140   Zn2       2.11892      .   S
    O156   Zn6       2.13159      .   S
    O138   C74       1.27116      .   S
    O154   C106      1.27231      .   S
    Zn2    O137      2.04013      .   S
    Zn2    O139      2.07794  1_455   S
    Zn2    N121      2.11809      .   S
    C104   O153      1.27374  1_655   S
    C104   C105      1.53405      .   S
    Zn6    O153      2.03300      .   S
    Zn6    O155      2.08878      .   S
    Zn6    N125      2.11888      .   S
    C72    O137      1.27355      .   S
    C72    C73       1.53281      .   S
    C74    O139      1.27231      .   S
    C74    C73       1.52402      .   S
    C106   C105      1.52329      .   S
    C106   O155      1.27243      .   S
    H17    C70       1.08971      .   S
    H42    C102      1.08960      .   S
    H20    C73       1.10122      .   S
    H45    C105      1.10119      .   S
    C105   H44       1.09341      .   S
    C73    H19       1.09345      .   S
    C70    N121      1.34827      .   S
    C70    C71       1.39020      .   S
    C102   N125      1.34803  1_545   S
    C102   C103      1.39017      .   S
    N121   C69       1.35046      .   S
    N125   C101      1.35073      .   S
    H18    C71       1.08713      .   S
    H43    C103      1.08713      .   S
    C71    C67       1.40015      .   S
    C103   C99       1.40037      .   S
    C69    H16       1.08891      .   S
    C69    C68       1.38944      .   S
    C101   H41       1.08878      .   S
    C101   C100      1.38938      .   S
    C67    C68       1.40416      .   S
    C67    C64       1.47823      .   S
    C99    C100      1.40361  1_545   S
    C99    C96       1.47855      .   S
    H37    C95       1.09059      .   S
    H12    C63       1.09048      .   S
    C68    H15       1.09079      .   S
    C100   H40       1.09075      .   S
    C95    C96       1.40406      .   S
    C95    C94       1.38979      .   S
    C63    C64       1.40404      .   S
    C63    C62       1.38958      .   S
    C64    C65       1.40016      .   S
    C96    C97       1.40041      .   S
    H36    C94       1.08889      .   S
    H11    C62       1.08882      .   S
    C94    N124      1.34945      .   S
    C62    N120      1.34949      .   S
    C65    H13       1.08638      .   S
    C65    C66       1.38898      .   S
    C97    H38       1.08664      .   S
    C97    C98       1.38929      .   S
    H9     C60       1.09351      .   S
    H34    C92       1.09338      .   S
    N120   C66       1.34745      .   S
    N120   Zn32      2.10192      .   S
    N124   C98       1.34759      .   S
    N124   Zn3       2.10793      .   S
    C66    H14       1.08918      .   S
    C98    H39       1.08936      .   S
    O135   C61       1.27398  1_455   S
    O135   Zn3       2.03972      .   S
    C60    H10       1.10123      .   S
    C60    C61       1.52326      .   S
    C60    C59       1.53317      .   S
    C92    H35       1.10131      .   S
    C92    C93       1.52476      .   S
    C92    C91       1.53249      .   S
    O151   C93       1.27392  1_565   S
    O151   Zn32      2.03822      .   S
    O149   C91       1.27277  1_465   S
    O149   Zn32      2.08855      .   S
    O133   C59       1.27337      .   S
    O133   Zn3       2.08226      .   S
    C61    O134      1.27131      .   S
    C93    O150      1.27085      .   S
    C59    O132      1.26774      .   S
    C91    O148      1.26852      .   S
    Zn32   O128      2.15642      .   S
    Zn32   O130      2.06604      .   S
    Zn3    O144      2.16330      .   S
    Zn3    O146      2.06941      .   S
    O128   C56       1.26756      .   S
    O144   C88       1.26815      .   S
    O134   Zn0       2.07952      .   S
    O150   Zn4       2.08903      .   S
    O148   Zn4       2.12743      .   S
    O132   Zn0       2.13646      .   S
    O146   C90       1.27115      .   S
    O130   C58       1.27172      .   S
