# CIF file generated by openbabel 2.4.90, see http://openbabel.sf.net
data_I
_chemical_name_common ''
_cell_length_a 6.9295
_cell_length_b 13.793
_cell_length_c 21.991
_cell_angle_alpha 89.959
_cell_angle_beta 89.755
_cell_angle_gamma 89.82
_space_group_name_H-M_alt 'P 1'
_space_group_name_Hall 'P 1'
loop_
    _symmetry_equiv_pos_as_xyz
    x,y,z
loop_
    _atom_site_label
    _atom_site_type_symbol
    _atom_site_fract_x
    _atom_site_fract_y
    _atom_site_fract_z
    _atom_site_occupancy
    C0      C    0.45630   0.77420   0.96767   1.000
    C1      C    0.09861   0.77740   0.97511   1.000
    C2      C    0.58381   0.52684   0.86491   1.000
    C3      C    0.94198   0.52808   0.85939   1.000
    C4      C    0.54153   0.22211   0.46880   1.000
    C5      C    0.89947   0.22106   0.47466   1.000
    C6      C    0.41493   0.47075   0.36517   1.000
    C7      C    0.05681   0.47164   0.36039   1.000
    C8      C    0.04140   0.27563   0.96789   1.000
    C9      C    0.39921   0.27751   0.97497   1.000
    C10     C    0.91561   0.02633   0.86493   1.000
    C11     C    0.55728   0.02603   0.86089   1.000
    C12     C    0.95612   0.72256   0.46712   1.000
    C13     C    0.59826   0.72012   0.47595   1.000
    C14     C    0.08388   0.97224   0.36561   1.000
    C15     C    0.44211   0.00000   0.36037   1.000
    O16     O    0.46829   0.79552   0.91171   1.000
    O17     O    0.57452   0.72129   0.00000   1.000
    O18     O    0.05348   0.80842   0.92258   1.000
    O19     O    0.99953   0.71620   0.00517   1.000
    O20     O    0.56735   0.54901   0.92063   1.000
    O21     O    0.46639   0.47421   0.83531   1.000
    O22     O    0.98369   0.55793   0.91240   1.000
    O23     O    0.04137   0.46651   0.82942   1.000
    O24     O    0.52721   0.19962   0.41312   1.000
    O25     O    0.42429   0.27559   0.49847   1.000
    O26     O    0.94290   0.19126   0.42164   1.000
    O27     O    0.99912   0.28190   0.50446   1.000
    O28     O    0.43251   0.44643   0.42051   1.000
    O29     O    0.53205   0.52455   0.33596   1.000
    O30     O    0.01591   0.44186   0.41358   1.000
    O31     O    0.95738   0.53312   0.33062   1.000
    O32     O    0.02798   0.29929   0.91233   1.000
    O33     O    0.92487   0.22129   0.00000   1.000
    O34     O    0.44330   0.30824   0.92222   1.000
    O35     O    0.49956   0.21665   0.00493   1.000
    O36     O    0.93305   0.04951   0.92045   1.000
    O37     O    0.03303   0.97314   0.83521   1.000
    O38     O    0.51669   0.05438   0.91442   1.000
    O39     O    0.45822   0.96521   0.83074   1.000
    O40     O    0.96625   0.70066   0.41123   1.000
    O41     O    0.07535   0.77520   0.49601   1.000
    O42     O    0.55046   0.68782   0.42399   1.000
    O43     O    0.50058   0.78251   0.50567   1.000
    O44     O    0.06722   0.94988   0.42133   1.000
    O45     O    0.96600   0.02493   0.33602   1.000
    O46     O    0.48358   0.94141   0.41342   1.000
    O47     O    0.54095   0.03299   0.33053   1.000
loop_
    _geom_bond_atom_site_label_1
    _geom_bond_atom_site_label_2
    _geom_bond_distance
    _geom_bond_site_symmetry_2
    _ccdc_geom_bond_type
    O33    C8        1.30791  1_654   S
    O17    C0        1.30744  1_554   S
    O35    C9        1.27352  1_554   S
    O19    C1        1.27269  1_654   S
    O47    C15       1.05091      .   S
    O31    C7        1.27339  1_655   S
    O29    C6        1.27299      .   S
    O45    C14       1.27235  1_645   S
    C15    O46       1.44816  1_545   S
    C7     O30       1.27069      .   S
    C6     O28       1.26849      .   S
    C14    O44       1.26818      .   S
    O40    C12       1.26743      .   S
    O24    C4        1.26792      .   S
    O26    C5        1.27116      .   S
    O42    C13       1.27231      .   S
    C12    O41       1.27374  1_655   S
    C4     O25       1.27355      .   S
    C5     O27       1.27231      .   S
    C13    O43       1.27243      .   S
    O23    C3        1.27398  1_455   S
    O39    C11       1.27392  1_565   S
    O37    C10       1.27277  1_465   S
    O21    C2        1.27337      .   S
    C3     O22       1.27131      .   S
    C11    O38       1.27085      .   S
    C2     O20       1.26774      .   S
    C10    O36       1.26852      .   S
    O16    C0        1.26756      .   S
    O32    C8        1.26815      .   S
    O34    C9        1.27115      .   S
    O18    C1        1.27172      .   S
