# CIF file generated by openbabel 2.4.90, see http://openbabel.sf.net
data_I
_chemical_name_common ''
_cell_length_a 6.9295
_cell_length_b 13.793
_cell_length_c 21.991
_cell_angle_alpha 89.959
_cell_angle_beta 89.755
_cell_angle_gamma 89.82
_space_group_name_H-M_alt 'P 1'
_space_group_name_Hall 'P 1'
loop_
    _symmetry_equiv_pos_as_xyz
    x,y,z
loop_
    _atom_site_label
    _atom_site_type_symbol
    _atom_site_fract_x
    _atom_site_fract_y
    _atom_site_fract_z
    _atom_site_occupancy
    C0      C    0.45630   0.77420   0.96767   1.000
    C1      C    0.09861   0.77740   0.97511   1.000
    C2      C    0.58381   0.52684   0.86491   1.000
    C3      C    0.94198   0.52808   0.85939   1.000
    C4      C    0.54153   0.22211   0.46880   1.000
    C5      C    0.89947   0.22106   0.47466   1.000
    C6      C    0.41493   0.47075   0.36517   1.000
    C7      C    0.05681   0.47164   0.36039   1.000
    C8      C    0.04140   0.27563   0.96789   1.000
    C9      C    0.39921   0.27751   0.97497   1.000
    C10     C    0.91561   0.02633   0.86493   1.000
    C11     C    0.55728   0.02603   0.86089   1.000
    C12     C    0.95612   0.72256   0.46712   1.000
    C13     C    0.59826   0.72012   0.47595   1.000
    C14     C    0.08388   0.97224   0.36561   1.000
    C15     C    0.44211   0.00000   0.36037   1.000
