# CIF file generated by openbabel 2.4.90, see http://openbabel.sf.net
data_I
_chemical_name_common ''
_cell_length_a 6.9295
_cell_length_b 13.793
_cell_length_c 21.991
_cell_angle_alpha 89.959
_cell_angle_beta 89.755
_cell_angle_gamma 89.82
_space_group_name_H-M_alt 'P 1'
_space_group_name_Hall 'P 1'
loop_
    _symmetry_equiv_pos_as_xyz
    x,y,z
loop_
    _atom_site_label
    _atom_site_type_symbol
    _atom_site_fract_x
    _atom_site_fract_y
    _atom_site_fract_z
    _atom_site_occupancy
    Zr0     Zr   0.24778   0.87949   0.86684   1.000
    Zr1     Zr   0.78408   0.62921   0.96745   1.000
    Zr2     Zr   0.75047   0.11729   0.36771   1.000
    Zr3     Zr   0.21575   0.36732   0.46705   1.000
    Zr4     Zr   0.25122   0.38168   0.86688   1.000
    Zr5     Zr   0.71591   0.12910   0.96768   1.000
    Zr6     Zr   0.74330   0.61695   0.36778   1.000
    Zr7     Zr   0.28386   0.86806   0.46716   1.000
    Zr8     Zr   0.45630   0.77420   0.96767   1.000
    Zr9     Zr   0.09861   0.77740   0.97511   1.000
    Zr10    Zr   0.58381   0.52684   0.86491   1.000
    Zr11    Zr   0.94198   0.52808   0.85939   1.000
    Zr12    Zr   0.54153   0.22211   0.46880   1.000
    Zr13    Zr   0.89947   0.22106   0.47466   1.000
    Zr14    Zr   0.41493   0.47075   0.36517   1.000
    Zr15    Zr   0.05681   0.47164   0.36039   1.000
    Zr16    Zr   0.04140   0.27563   0.96789   1.000
    Zr17    Zr   0.39921   0.27751   0.97497   1.000
    Zr18    Zr   0.91561   0.02633   0.86493   1.000
    Zr19    Zr   0.55728   0.02603   0.86089   1.000
    Zr20    Zr   0.95612   0.72256   0.46712   1.000
    Zr21    Zr   0.59826   0.72012   0.47595   1.000
    Zr22    Zr   0.08388   0.97224   0.36561   1.000
    Zr23    Zr   0.44211   0.00000   0.36037   1.000
    Zr24    Zr   0.46829   0.79552   0.91171   1.000
    Zr25    Zr   0.57452   0.72129   0.00000   1.000
    Zr26    Zr   0.05348   0.80842   0.92258   1.000
    Zr27    Zr   0.99953   0.71620   0.00517   1.000
    Zr28    Zr   0.56735   0.54901   0.92063   1.000
    Zr29    Zr   0.46639   0.47421   0.83531   1.000
    Zr30    Zr   0.98369   0.55793   0.91240   1.000
    Zr31    Zr   0.04137   0.46651   0.82942   1.000
    Zr32    Zr   0.52721   0.19962   0.41312   1.000
    Zr33    Zr   0.42429   0.27559   0.49847   1.000
    Zr34    Zr   0.94290   0.19126   0.42164   1.000
    Zr35    Zr   0.99912   0.28190   0.50446   1.000
    Zr36    Zr   0.43251   0.44643   0.42051   1.000
    Zr37    Zr   0.53205   0.52455   0.33596   1.000
    Zr38    Zr   0.01591   0.44186   0.41358   1.000
    Zr39    Zr   0.95738   0.53312   0.33062   1.000
    Zr40    Zr   0.02798   0.29929   0.91233   1.000
    Zr41    Zr   0.92487   0.22129   0.00000   1.000
    Zr42    Zr   0.44330   0.30824   0.92222   1.000
    Zr43    Zr   0.49956   0.21665   0.00493   1.000
    Zr44    Zr   0.93305   0.04951   0.92045   1.000
    Zr45    Zr   0.03303   0.97314   0.83521   1.000
    Zr46    Zr   0.51669   0.05438   0.91442   1.000
    Zr47    Zr   0.45822   0.96521   0.83074   1.000
    Zr48    Zr   0.96625   0.70066   0.41123   1.000
    Zr49    Zr   0.07535   0.77520   0.49601   1.000
    Zr50    Zr   0.55046   0.68782   0.42399   1.000
    Zr51    Zr   0.50058   0.78251   0.50567   1.000
    Zr52    Zr   0.06722   0.94988   0.42133   1.000
    Zr53    Zr   0.96600   0.02493   0.33602   1.000
    Zr54    Zr   0.48358   0.94141   0.41342   1.000
    Zr55    Zr   0.54095   0.03299   0.33053   1.000
    O56     O    0.82039   0.17520   0.98384   1.000
    O57     O    0.98313   0.24846   0.98395   1.000
    O58     O    0.67930   0.67525   0.98372   1.000
    O59     O    0.51541   0.74774   0.98384   1.000
    O60     O    0.60774   0.17288   0.98630   1.000
    O61     O    0.44938   0.24708   0.98995   1.000
    O62     O    0.89181   0.67271   0.98631   1.000
    O63     O    0.04907   0.74680   0.99014   1.000
    O64     O    0.49153   0.01649   0.34545   1.000
    O65     O    0.64571   0.07514   0.34912   1.000
    O66     O    0.00710   0.50238   0.34551   1.000
    O67     O    0.85034   0.57503   0.34920   1.000
    O68     O    0.47349   0.49765   0.35056   1.000
    O69     O    0.63768   0.57075   0.35187   1.000
    O70     O    0.02494   0.99858   0.35082   1.000
    O71     O    0.85824   0.07111   0.35186   1.000
    O72     O    0.46285   0.97070   0.38690   1.000
    O73     O    0.03636   0.45675   0.38699   1.000
    O74     O    0.42372   0.45859   0.39284   1.000
    O75     O    0.07555   0.96106   0.39347   1.000
    O76     O    0.63884   0.15846   0.39041   1.000
    O77     O    0.84668   0.15427   0.39467   1.000
    O78     O    0.85478   0.65881   0.38950   1.000
    O79     O    0.64688   0.65239   0.39589   1.000
    O80     O    0.96118   0.71161   0.43917   1.000
    O81     O    0.53437   0.21087   0.44096   1.000
    O82     O    0.38372   0.90474   0.44029   1.000
    O83     O    0.11583   0.40459   0.44032   1.000
    O84     O    0.32413   0.40688   0.44378   1.000
    O85     O    0.17554   0.90897   0.44425   1.000
    O86     O    0.92119   0.20616   0.44815   1.000
    O87     O    0.57436   0.70397   0.44997   1.000
    O88     O    0.32002   0.32145   0.48276   1.000
    O89     O    0.10743   0.32461   0.48576   1.000
    O90     O    0.01574   0.74888   0.48156   1.000
    O91     O    0.17961   0.82163   0.48158   1.000
    O92     O    0.39222   0.82529   0.48641   1.000
    O93     O    0.48291   0.24885   0.48363   1.000
    O94     O    0.94929   0.25148   0.48956   1.000
    O95     O    0.54942   0.75132   0.49081   1.000
    O96     O    0.99168   0.49730   0.84440   1.000
    O97     O    0.14630   0.42409   0.84815   1.000
    O98     O    0.50775   0.99562   0.84581   1.000
    O99     O    0.35300   0.92235   0.84879   1.000
    O100    O    0.97432   0.99973   0.85007   1.000
    O101    O    0.14041   0.92631   0.85103   1.000
    O102    O    0.52510   0.50052   0.85011   1.000
    O103    O    0.35881   0.42795   0.85109   1.000
    O104    O    0.96284   0.54300   0.88589   1.000
    O105    O    0.53699   0.04020   0.88766   1.000
    O106    O    0.57558   0.53792   0.89277   1.000
    O107    O    0.92433   0.03792   0.89269   1.000
    O108    O    0.35804   0.83750   0.88928   1.000
    O109    O    0.15063   0.84395   0.89471   1.000
    O110    O    0.13960   0.34048   0.88960   1.000
    O111    O    0.34726   0.34496   0.89455   1.000
    O112    O    0.46230   0.78486   0.93969   1.000
    O113    O    0.03469   0.28746   0.94011   1.000
    O114    O    0.88389   0.59357   0.93992   1.000
    O115    O    0.61630   0.09174   0.94105   1.000
    O116    O    0.82448   0.08930   0.94406   1.000
    O117    O    0.67572   0.58911   0.94404   1.000
    O118    O    0.42126   0.29287   0.94859   1.000
    O119    O    0.07604   0.79291   0.94885   1.000
    N120    N    0.28831   0.83223   0.01912   1.000
    O121    O    0.23987   0.81386   0.00438   1.000
    O122    O    0.32929   0.81306   0.00252   1.000
    N123    N    0.75549   0.58414   0.81447   1.000
    O124    O    0.80283   0.56544   0.82944   1.000
    O125    O    0.71329   0.56513   0.83082   1.000
    N126    N    0.30246   0.12581   0.66722   1.000
    O127    O    0.29694   0.02078   0.58602   1.000
    O128    O    0.28578   0.23017   0.74839   1.000
    N129    N    0.20903   0.33221   0.01951   1.000
    O130    O    0.25761   0.31393   0.00461   1.000
    O131    O    0.16816   0.31346   0.00284   1.000
    N132    N    0.69522   0.87225   0.16767   1.000
    O133    O    0.70132   0.97691   0.08640   1.000
    O134    O    0.71083   0.76818   0.24905   1.000
    N135    N    0.80267   0.37215   0.16734   1.000
    O136    O    0.79759   0.47683   0.08607   1.000
    O137    O    0.78528   0.26818   0.24877   1.000
    N138    N    0.74160   0.08306   0.81525   1.000
    O139    O    0.69501   0.06410   0.83040   1.000
    O140    O    0.78459   0.06417   0.83141   1.000
    N141    N    0.19625   0.62540   0.66688   1.000
    O142    O    0.21352   0.72920   0.74815   1.000
    O143    O    0.20155   0.52035   0.58571   1.000
    N144    N    0.71202   0.16520   0.51959   1.000
    O145    O    0.75969   0.18383   0.50460   1.000
    O146    O    0.67020   0.18409   0.50314   1.000
    N147    N    0.25682   0.92947   0.31519   1.000
    O148    O    0.21421   0.94132   0.33155   1.000
    O149    O    0.30377   0.94826   0.33024   1.000
    N150    N    0.78994   0.66565   0.51952   1.000
    O151    O    0.83030   0.68449   0.50265   1.000
    O152    O    0.74083   0.68388   0.50486   1.000
    N153    N    0.24249   0.41543   0.31470   1.000
    O154    O    0.28498   0.43387   0.33109   1.000
    O155    O    0.19545   0.43410   0.32989   1.000
loop_
    _geom_bond_atom_site_label_1
    _geom_bond_atom_site_label_2
    _geom_bond_distance
    _geom_bond_site_symmetry_2
    _ccdc_geom_bond_type
    Zr41   O56       1.02959  1_554   S
    Zr5    O56       1.02959      .   S
    Zr41   O57       0.65395  1_554   S
    Zr16   O57       0.65395  1_455   S
    Zr25   O58       1.02653  1_554   S
    Zr1    O58       1.02653      .   S
    Zr25   O59       0.65372  1_554   S
    Zr8    O59       0.65372      .   S
    Zr43   O60       1.04361  1_554   S
    Zr5    O60       1.04361      .   S
    Zr43   O61       0.63676  1_554   S
    Zr17   O61       0.63676      .   S
    Zr27   O62       1.04643  1_554   S
    Zr1    O62       1.04643      .   S
    Zr27   O63       0.63634  1_654   S
    Zr9    O63       0.63634      .   S
    Zr55   O64       0.52545      .   S
    Zr23   O64       0.52545      .   S
    Zr55   O65       1.01866      .   S
    Zr2    O65       1.01866      .   S
    Zr39   O66       0.63669  1_655   S
    Zr15   O66       0.63669      .   S
    Zr39   O67       1.02296      .   S
    Zr6    O67       1.02296      .   S
    Zr37   O68       0.63650      .   S
    Zr14   O68       0.63650      .   S
    Zr37   O69       1.03423      .   S
    Zr6    O69       1.03423      .   S
    Zr53   O70       0.63617  1_645   S
    Zr22   O70       0.63617      .   S
    Zr53   O71       1.03920      .   S
    Zr2    O71       1.03920      .   S
    Zr23   O72       0.72408  1_545   S
    Zr54   O72       0.72408      .   S
    Zr15   O73       0.63535      .   S
    Zr38   O73       0.63535      .   S
    Zr14   O74       0.63425      .   S
    Zr36   O74       0.63425      .   S
    Zr22   O75       0.63409      .   S
    Zr52   O75       0.63409      .   S
    Zr2    O76       1.07908      .   S
    Zr32   O76       1.07908      .   S
    Zr2    O77       1.03069      .   S
    Zr34   O77       1.03069      .   S
    Zr6    O78       1.07913      .   S
    Zr48   O78       1.07913      .   S
    Zr6    O79       1.03058      .   S
    Zr50   O79       1.03058      .   S
    Zr48   O80       0.63371      .   S
    Zr20   O80       0.63371      .   S
    Zr32   O81       0.63396      .   S
    Zr12   O81       0.63396      .   S
    Zr54   O82       1.04025      .   S
    Zr7    O82       1.04025      .   S
    Zr38   O83       1.04409      .   S
    Zr3    O83       1.04409      .   S
    Zr36   O84       1.05946      .   S
    Zr3    O84       1.05946      .   S
    Zr52   O85       1.06579      .   S
    Zr7    O85       1.06579      .   S
    Zr34   O86       0.63558      .   S
    Zr13   O86       0.63558      .   S
    Zr50   O87       0.63615      .   S
    Zr21   O87       0.63615      .   S
    Zr3    O88       1.02006      .   S
    Zr33   O88       1.02006      .   S
    Zr3    O89       1.03897      .   S
    Zr35   O89       1.03897  1_655   S
    Zr20   O90       0.63687  1_655   S
    Zr49   O90       0.63687      .   S
    Zr7    O91       1.01650      .   S
    Zr49   O91       1.01650      .   S
    Zr7    O92       1.04439      .   S
    Zr51   O92       1.04439      .   S
    Zr12   O93       0.63678      .   S
    Zr33   O93       0.63678      .   S
    Zr13   O94       0.63615      .   S
    Zr35   O94       0.63615      .   S
    Zr21   O95       0.63621      .   S
    Zr51   O95       0.63621      .   S
    Zr31   O96       0.63699  1_455   S
    Zr11   O96       0.63699      .   S
    Zr31   O97       1.01986      .   S
    Zr4    O97       1.01986      .   S
    Zr47   O98       0.63696      .   S
    Zr19   O98       0.63696  1_545   S
    Zr47   O99       1.01911      .   S
    Zr0    O99       1.01911      .   S
    Zr45   O100      0.63638  1_455   S
    Zr18   O100      0.63638  1_545   S
    Zr45   O101      1.04428      .   S
    Zr0    O101      1.04428      .   S
    Zr29   O102      0.63668      .   S
    Zr10   O102      0.63668      .   S
    Zr29   O103      1.04113      .   S
    Zr4    O103      1.04113      .   S
    Zr11   O104      0.63566      .   S
    Zr30   O104      0.63566      .   S
    Zr19   O105      0.63543      .   S
    Zr46   O105      0.63543      .   S
    Zr10   O106      0.63387      .   S
    Zr28   O106      0.63387      .   S
    Zr18   O107      0.63426      .   S
    Zr44   O107      0.63426      .   S
    Zr0    O108      1.07821      .   S
    Zr24   O108      1.07821      .   S
    Zr0    O109      1.03302      .   S
    Zr26   O109      1.03302      .   S
    Zr4    O110      1.08165      .   S
    Zr40   O110      1.08165      .   S
    Zr4    O111      1.03470      .   S
    Zr42   O111      1.03470      .   S
    Zr24   O112      0.63378      .   S
    Zr8    O112      0.63378      .   S
    Zr40   O113      0.63407      .   S
    Zr16   O113      0.63407      .   S
    Zr30   O114      1.03976      .   S
    Zr1    O114      1.03976      .   S
    Zr46   O115      1.04451      .   S
    Zr5    O115      1.04451      .   S
    Zr44   O116      1.06372      .   S
    Zr5    O116      1.06372      .   S
    Zr28   O117      1.06823      .   S
    Zr1    O117      1.06823      .   S
    Zr42   O118      0.63557      .   S
    Zr17   O118      0.63557      .   S
    Zr26   O119      0.63586      .   S
    Zr9    O119      0.63586      .   S
    N120   O121      0.53247      .   S
    Zr9    O121      1.27838  1_556   S
    N120   O122      0.53159      .   S
    Zr8    O122      1.28097  1_556   S
    N123   O124      0.53175      .   S
    Zr11   O124      1.27702      .   S
    N123   O125      0.53192      .   S
    Zr10   O125      1.28167      .   S
    N126   O127      2.30075      .   S
    Zr7    O127      3.35976  1_565   S
    N126   O128      2.29625      .   S
    Zr4    O128      3.34855      .   S
    N129   O130      0.53194      .   S
    Zr17   O130      1.27747  1_556   S
    N129   O131      0.53202      .   S
    Zr16   O131      1.28203  1_556   S
    N132   O133      2.29685      .   S
    Zr5    O133      3.35034  1_546   S
    N132   O134      2.29606      .   S
    Zr6    O134      3.34869      .   S
    N135   O136      2.29702      .   S
    Zr1    O136      3.35040  1_556   S
    N135   O137      2.29637      .   S
    Zr2    O137      3.34965      .   S
    N138   O139      0.53206      .   S
    Zr19   O139      1.27801      .   S
    N138   O140      0.53217      .   S
    Zr18   O140      1.28161      .   S
    N141   O142      2.29442      .   S
    Zr0    O142      3.34401      .   S
    N141   O143      2.29998      .   S
    Zr3    O143      3.35836      .   S
    N144   O145      0.53215      .   S
    Zr13   O145      1.27780      .   S
    N144   O146      0.53199      .   S
    Zr12   O146      1.28154      .   S
    N147   O148      0.49208      .   S
    Zr22   O148      1.24534      .   S
    N147   O149      0.53293      .   S
    Zr23   O149      1.37033  1_545   S
    N150   O151      0.53174      .   S
    Zr20   O151      1.28179      .   S
    N150   O152      0.53216      .   S
    Zr21   O152      1.27750      .   S
    N153   O154      0.53180      .   S
    Zr14   O154      1.28072      .   S
    N153   O155      0.53182      .   S
    Zr15   O155      1.27782      .   S
