# CIF file generated by openbabel 2.4.90, see http://openbabel.sf.net
data_I
_chemical_name_common ''
_cell_length_a 15.026
_cell_length_b 14.001
_cell_length_c 14.741
_cell_angle_alpha 62.372
_cell_angle_beta 59.451
_cell_angle_gamma 57.636
_space_group_name_H-M_alt 'P 1'
_space_group_name_Hall 'P 1'
loop_
    _symmetry_equiv_pos_as_xyz
    x,y,z
loop_
    _atom_site_label
    _atom_site_type_symbol
    _atom_site_fract_x
    _atom_site_fract_y
    _atom_site_fract_z
    _atom_site_occupancy
    N0      N    0.00001   0.00000   0.99992   1.000
    N1      N    0.40889   0.14814   0.11809   1.000
    N2      N    0.67636   0.35196   0.38035   1.000
    N3      N    0.00003   0.50001   0.49993   1.000
    N4      N    0.32369   0.64807   0.61938   1.000
    N5      N    0.59116   0.85190   0.88085   1.000
    Zr6     Zr   0.95020   0.02653   0.63534   1.000
    O7      O    0.87643   0.11725   0.55157   1.000
    O8      O    0.86650   0.13336   0.56305   1.000
    O9      O    0.06135   0.91593   0.61752   1.000
    O10     O    0.84426   0.97355   0.70779   1.000
    O11     O    0.97384   0.01627   0.73870   1.000
    Zr12    Zr   0.29475   0.74978   0.25006   1.000
    O13     O    0.40986   0.63228   0.28654   1.000
    O14     O    0.32889   0.86741   0.21313   1.000
    O15     O    0.20187   0.82998   0.18035   1.000
    O16     O    0.21234   0.66970   0.31972   1.000
    O17     O    0.28662   0.72684   0.36513   1.000
    O18     O    0.37870   0.77285   0.13499   1.000
    Zr19    Zr   0.04985   0.97351   0.36450   1.000
    O20     O    0.93870   0.08411   0.38229   1.000
    O21     O    0.15580   0.02649   0.29182   1.000
    O22     O    0.02620   0.98376   0.26114   1.000
    O23     O    0.12362   0.88279   0.44825   1.000
    O24     O    0.13355   0.86667   0.43665   1.000
    Zr25    Zr   0.61243   0.47387   0.86438   1.000
    O26     O    0.54549   0.38311   0.94774   1.000
    O27     O    0.56331   0.36694   0.93625   1.000
    O28     O    0.72909   0.48404   0.76104   1.000
    O29     O    0.59508   0.58423   0.88246   1.000
    O30     O    0.52583   0.52679   0.79202   1.000
    Zr31    Zr   0.38761   0.52616   0.13548   1.000
    O32     O    0.40497   0.41580   0.11717   1.000
    O33     O    0.43674   0.63309   0.06338   1.000
    O34     O    0.27096   0.51599   0.23882   1.000
    O35     O    0.47422   0.47324   0.20781   1.000
    O36     O    0.45456   0.61692   0.05189   1.000
    Zr37    Zr   0.70529   0.25026   0.74979   1.000
    O38     O    0.71343   0.27319   0.63458   1.000
    O39     O    0.62135   0.22718   0.86463   1.000
    O40     O    0.78771   0.33033   0.68014   1.000
    O41     O    0.79817   0.17004   0.81951   1.000
    O42     O    0.59018   0.36775   0.71328   1.000
    O43     O    0.67116   0.13262   0.78649   1.000
loop_
    _geom_bond_atom_site_label_1
    _geom_bond_atom_site_label_2
    _geom_bond_distance
    _geom_bond_site_symmetry_2
    _ccdc_geom_bond_type
    Zr6    O7        1.67232      .   S
    N2     O7        3.95608      .   S
    Zr6    O8        1.68072      .   S
    N2     O8        3.94952      .   S
    Zr6    O9        1.55520  1_645   S
    N4     O9        3.71369      .   S
    Zr6    O10       1.73968  1_545   S
    N5     O10       4.11271      .   S
    Zr6    O11       1.66158      .   S
    N0     O11       3.95779  1_455   S
    Zr12   O13       1.75096      .   S
    N2     O13       4.13779      .   S
    Zr12   O14       1.74959      .   S
    N1     O14       4.13471  1_545   S
    Zr12   O15       1.72473      .   S
    N0     O15       4.06679  1_546   S
    Zr12   O16       1.72368      .   S
    N3     O16       4.06507      .   S
    Zr12   O17       1.52355      .   S
    N4     O17       3.63390      .   S
    Zr12   O18       1.52499      .   S
    N5     O18       3.63743  1_556   S
    Zr19   O20       1.55517  1_465   S
    N2     O20       3.71380      .   S
    Zr19   O21       1.73952  1_565   S
    N1     O21       4.11230      .   S
    Zr19   O22       1.66165      .   S
    N0     O22       3.95806  1_546   S
    Zr19   O23       1.67205      .   S
    N4     O23       3.95531      .   S
    Zr19   O24       1.67950      .   S
    N4     O24       3.94984      .   S
    Zr25   O26       1.67338      .   S
    N1     O26       3.95845  1_554   S
    Zr25   O27       1.68093      .   S
    N1     O27       3.95287  1_554   S
    Zr25   O28       1.66282      .   S
    N3     O28       3.96056  1_455   S
    Zr25   O29       1.55130      .   S
    N5     O29       3.70554      .   S
    Zr25   O30       1.73953      .   S
    N4     O30       4.11254      .   S
    Zr31   O32       1.55314      .   S
    N1     O32       3.71010      .   S
    Zr31   O33       1.68094      .   S
    N5     O33       3.95315  1_556   S
    Zr31   O34       1.66283      .   S
    N3     O34       3.96057      .   S
    Zr31   O35       1.73916      .   S
    N2     O35       4.11148      .   S
    Zr31   O36       1.67368      .   S
    N5     O36       3.95837  1_556   S
    Zr37   O38       1.52556      .   S
    N2     O38       3.63349      .   S
    Zr37   O39       1.52298      .   S
    N1     O39       3.63294  1_554   S
    Zr37   O40       1.72365      .   S
    N3     O40       4.06501  1_455   S
    Zr37   O41       1.72466      .   S
    N0     O41       4.06654  1_455   S
    Zr37   O42       1.75110      .   S
    N4     O42       4.13824      .   S
    Zr37   O43       1.75048      .   S
    N5     O43       4.13718  1_565   S
