# CIF file generated by openbabel 2.4.90, see http://openbabel.sf.net
data_I
_chemical_name_common ''
_cell_length_a 15.026
_cell_length_b 14.001
_cell_length_c 14.741
_cell_angle_alpha 62.372
_cell_angle_beta 59.451
_cell_angle_gamma 57.636
_space_group_name_H-M_alt 'P 1'
_space_group_name_Hall 'P 1'
loop_
    _symmetry_equiv_pos_as_xyz
    x,y,z
loop_
    _atom_site_label
    _atom_site_type_symbol
    _atom_site_fract_x
    _atom_site_fract_y
    _atom_site_fract_z
    _atom_site_occupancy
    Zr0     Zr   0.95020   0.02653   0.63534   1.000
    Zr1     Zr   0.61243   0.47387   0.86438   1.000
    Zr2     Zr   0.04985   0.97351   0.36450   1.000
    Zr3     Zr   0.38761   0.52616   0.13548   1.000
    Zr4     Zr   0.70529   0.25026   0.74979   1.000
    Zr5     Zr   0.29475   0.74978   0.25006   1.000
    N6      N    0.00001   0.00000   0.99992   1.000
    O7      O    0.89104   0.08983   0.88922   1.000
    O8      O    0.99748   0.00601   0.84206   1.000
    O9      O    0.10899   0.91019   0.11063   1.000
    O10     O    0.00255   0.99401   0.15779   1.000
    N11     N    0.40889   0.14814   0.11809   1.000
    O12     O    0.26175   0.07947   0.21914   1.000
    O13     O    0.36303   0.98505   0.17620   1.000
    O14     O    0.42233   0.30543   0.09887   1.000
    O15     O    0.47854   0.29236   0.03109   1.000
    O16     O    0.53741   0.20411   0.97947   1.000
    O17     O    0.51419   0.26001   0.00812   1.000
    N18     N    0.67636   0.35196   0.38035   1.000
    O19     O    0.82756   0.19471   0.40008   1.000
    O20     O    0.80265   0.20797   0.46779   1.000
    O21     O    0.72157   0.29613   0.51937   1.000
    O22     O    0.78280   0.24020   0.49076   1.000
    O23     O    0.56082   0.42032   0.28014   1.000
    O24     O    0.52497   0.51478   0.32302   1.000
    N25     N    0.00003   0.50001   0.49993   1.000
    O26     O    0.87012   0.41041   0.61048   1.000
    O27     O    0.84575   0.49421   0.65771   1.000
    O28     O    0.12992   0.58962   0.38937   1.000
    O29     O    0.15430   0.50581   0.34216   1.000
    N30     N    0.32369   0.64807   0.61938   1.000
    O31     O    0.17249   0.80532   0.59971   1.000
    O32     O    0.19740   0.79207   0.53200   1.000
    O33     O    0.27848   0.70390   0.48019   1.000
    O34     O    0.21725   0.75984   0.50880   1.000
    O35     O    0.43922   0.57971   0.71966   1.000
    O36     O    0.47508   0.48525   0.67678   1.000
    N37     N    0.59116   0.85190   0.88085   1.000
    O38     O    0.57772   0.69460   0.90053   1.000
    O39     O    0.52151   0.70767   0.96831   1.000
    O40     O    0.46264   0.79592   0.01993   1.000
    O41     O    0.48586   0.74002   0.99128   1.000
    O42     O    0.73831   0.92057   0.78024   1.000
    O43     O    0.63702   0.01499   0.82319   1.000
loop_
    _geom_bond_atom_site_label_1
    _geom_bond_atom_site_label_2
    _geom_bond_distance
    _geom_bond_site_symmetry_2
    _ccdc_geom_bond_type
    N6     O7        2.35243  1_455   S
    Zr4    O7        3.44931      .   S
    N6     O8        2.30836  1_455   S
    Zr0    O8        3.32316      .   S
    N6     O9        2.35261  1_546   S
    Zr5    O9        3.44946      .   S
    N6     O10       2.30857  1_546   S
    Zr2    O10       3.32330      .   S
    N11    O12       2.37304      .   S
    Zr2    O12       3.47905  1_565   S
    N11    O13       2.38613  1_545   S
    Zr5    O13       3.49917      .   S
    N11    O14       2.19323      .   S
    Zr3    O14       3.10629      .   S
    N11    O15       2.30508      .   S
    Zr1    O15       3.34676  1_556   S
    N11    O16       2.15462  1_554   S
    Zr4    O16       3.04596      .   S
    N11    O17       2.29690      .   S
    Zr1    O17       3.36187  1_556   S
    N18    O19       2.19460      .   S
    Zr2    O19       3.11034  1_465   S
    N18    O20       2.30380      .   S
    Zr0    O20       3.34463      .   S
    N18    O21       2.15249      .   S
    Zr4    O21       3.05111      .   S
    N18    O22       2.29349      .   S
    Zr0    O22       3.36145      .   S
    N18    O23       2.37258      .   S
    Zr3    O23       3.47833      .   S
    N18    O24       2.38778      .   S
    Zr5    O24       3.50192      .   S
    N25    O26       2.35189  1_455   S
    Zr4    O26       3.44731      .   S
    N25    O27       2.30984  1_455   S
    Zr1    O27       3.32564      .   S
    N25    O28       2.35192      .   S
    Zr5    O28       3.44736      .   S
    N25    O29       2.30984      .   S
    Zr3    O29       3.32567      .   S
    N30    O31       2.19443      .   S
    Zr0    O31       3.11040  1_645   S
    N30    O32       2.30333      .   S
    Zr2    O32       3.34410      .   S
    N30    O33       2.15483      .   S
    Zr5    O33       3.04710      .   S
    N30    O34       2.29536      .   S
    Zr2    O34       3.35901      .   S
    N30    O35       2.37327      .   S
    Zr1    O35       3.47906      .   S
    N30    O36       2.38810      .   S
    Zr4    O36       3.50219      .   S
    N37    O38       2.19068      .   S
    Zr1    O38       3.10259      .   S
    N37    O39       2.30457      .   S
    Zr3    O39       3.34736  1_554   S
    N37    O40       2.15683  1_556   S
    Zr5    O40       3.04997      .   S
    N37    O41       2.29722      .   S
    Zr3    O41       3.36188  1_554   S
    N37    O42       2.37328      .   S
    Zr0    O42       3.47937  1_545   S
    N37    O43       2.38766  1_565   S
    Zr4    O43       3.50097      .   S
