# CIF file generated by openbabel 2.4.90, see http://openbabel.sf.net
data_I
_chemical_name_common 'VESTA_phase_1'
_cell_length_a 20.975
_cell_length_b 18.056
_cell_length_c 18.058
_cell_angle_alpha 120.058
_cell_angle_beta 90.008
_cell_angle_gamma 90.002
_space_group_name_H-M_alt 'P 1'
_space_group_name_Hall 'P 1'
loop_
    _symmetry_equiv_pos_as_xyz
    x,y,z
loop_
    _atom_site_label
    _atom_site_type_symbol
    _atom_site_fract_x
    _atom_site_fract_y
    _atom_site_fract_z
    _atom_site_occupancy
    Zn0     Zn   0.46103   0.92342   0.47399   1.000
    Zn1     Zn   0.96103   0.92342   0.47000   1.000
    Zn2     Zn   0.12769   0.55051   0.07647   1.000
    Zn3     Zn   0.62769   0.55051   0.07647   1.000
    Zn4     Zn   0.29434   0.52569   0.44929   1.000
    Zn5     Zn   0.79435   0.52569   0.44929   1.000
    Zn6     Zn   0.21102   0.07653   0.52601   1.000
    Zn7     Zn   0.71102   0.07653   0.52601   1.000
    Zn8     Zn   0.37767   0.44956   0.92357   1.000
    Zn9     Zn   0.87767   0.44956   0.92357   1.000
    Zn10    Zn   0.04435   0.47425   0.55074   1.000
    Zn11    Zn   0.54436   0.47425   0.55074   1.000
    H12     H    0.40992   0.07114   0.55200   1.000
    H13     H    0.90992   0.07114   0.55200   1.000
    H14     H    0.30687   0.29425   0.79112   1.000
    H15     H    0.80687   0.29425   0.79112   1.000
    H16     H    0.49096   0.33504   0.88619   1.000
    H17     H    0.99097   0.33504   0.88619   1.000
    H18     H    0.02284   0.18468   0.78187   1.000
    H19     H    0.52285   0.18467   0.78187   1.000
    H20     H    0.33016   0.14313   0.68278   1.000
    H21     H    0.83016   0.14313   0.68270   1.000
    H22     H    0.49197   0.04135   0.66725   1.000
    H23     H    0.99197   0.04135   0.66725   1.000
    H24     H    0.40941   0.01634   0.64611   1.000
    H25     H    0.90941   0.01634   0.64611   1.000
    H26     H    0.02481   0.14984   0.62550   1.000
    H27     H    0.52481   0.14984   0.62551   1.000
    H28     H    0.03004   0.19572   0.52273   1.000
    H29     H    0.53004   0.19572   0.52273   1.000
    H30     H    0.42150   0.07073   0.42243   1.000
    H31     H    0.92150   0.07073   0.42240   1.000
    H32     H    0.00129   0.06328   0.38899   1.000
    H33     H    0.50129   0.06328   0.38899   1.000
    H34     H    0.45417   0.15103   0.40347   1.000
    H35     H    0.95417   0.15103   0.40347   1.000
    H36     H    0.43045   0.27449   0.55394   1.000
    H37     H    0.93046   0.27449   0.55394   1.000
    H38     H    0.45450   0.26867   0.64490   1.000
    H39     H    0.95450   0.26866   0.64499   1.000
    H40     H    0.39103   0.20333   0.58001   1.000
    H41     H    0.89103   0.20333   0.58001   1.000
    H42     H    0.07655   0.48092   0.92876   1.000
    H43     H    0.57656   0.48092   0.92876   1.000
    H44     H    0.47352   0.49718   0.70581   1.000
    H45     H    0.97352   0.49719   0.70582   1.000
    H46     H    0.15765   0.55170   0.66554   1.000
    H47     H    0.65766   0.55171   0.66550   1.000
    H48     H    0.18942   0.59766   0.81586   1.000
    H49     H    0.68942   0.59767   0.81587   1.000
    H50     H    0.99670   0.53985   0.85686   1.000
    H51     H    0.49670   0.53985   0.85686   1.000
    H52     H    0.15843   0.62626   0.95901   1.000
    H53     H    0.65843   0.62626   0.95901   1.000
    H54     H    0.07587   0.62988   0.98383   1.000
    H55     H    0.57587   0.62988   0.98383   1.000
    H56     H    0.19147   0.47590   0.85026   1.000
    H57     H    0.69147   0.47590   0.85026   1.000
    H58     H    0.19675   0.32706   0.80400   1.000
    H59     H    0.69675   0.32706   0.80400   1.000
    H60     H    0.08816   0.35156   0.92878   1.000
    H61     H    0.58817   0.35156   0.92878   1.000
    H62     H    0.16797   0.32562   0.93627   1.000
    H63     H    0.66797   0.32562   0.93627   1.000
    H64     H    0.12091   0.25227   0.84838   1.000
    H65     H    0.62091   0.25227   0.84830   1.000
    H66     H    0.09723   0.27939   0.72510   1.000
    H67     H    0.59723   0.27939   0.72513   1.000
    H68     H    0.12123   0.37643   0.73123   1.000
    H69     H    0.62123   0.37643   0.73123   1.000
    H70     H    0.05772   0.37664   0.79637   1.000
    H71     H    0.55773   0.37663   0.79637   1.000
    H72     H    0.24325   0.44793   0.51913   1.000
    H73     H    0.74325   0.44793   0.51913   1.000
    H74     H    0.14022   0.20886   0.50327   1.000
    H75     H    0.64022   0.20886   0.50328   1.000
    H76     H    0.32429   0.11377   0.44864   1.000
    H77     H    0.82429   0.11377   0.44864   1.000
    H78     H    0.35607   0.21796   0.40258   1.000
    H79     H    0.85607   0.21797   0.40258   1.000
    H80     H    0.16341   0.31707   0.46048   1.000
    H81     H    0.66341   0.31707   0.46048   1.000
    H82     H    0.32514   0.33242   0.37390   1.000
    H83     H    0.82514   0.33242   0.37394   1.000
    H84     H    0.24257   0.35358   0.37020   1.000
    H85     H    0.74258   0.35358   0.37020   1.000
    H86     H    0.35822   0.37456   0.52425   1.000
    H87     H    0.85823   0.37456   0.52425   1.000
    H88     H    0.36348   0.47749   0.67306   1.000
    H89     H    0.86348   0.47750   0.67306   1.000
    H90     H    0.25479   0.57752   0.64847   1.000
    H91     H    0.75479   0.57752   0.64847   1.000
    H92     H    0.33456   0.61114   0.67455   1.000
    H93     H    0.83456   0.61114   0.67455   1.000
    H94     H    0.28749   0.59661   0.74779   1.000
    H95     H    0.78749   0.59661   0.74779   1.000
    H96     H    0.26407   0.44610   0.72068   1.000
    H97     H    0.76407   0.44610   0.72069   1.000
    H98     H    0.28804   0.35507   0.62359   1.000
    H99     H    0.78805   0.35507   0.62360   1.000
    H100    H    0.22448   0.41998   0.62349   1.000
    H101    H    0.72448   0.41999   0.62300   1.000
    H102    H    0.15991   0.92880   0.44780   1.000
    H103    H    0.65992   0.92880   0.44784   1.000
    H104    H    0.05697   0.70570   0.20892   1.000
    H105    H    0.55697   0.70570   0.20892   1.000
    H106    H    0.24098   0.66518   0.11367   1.000
    H107    H    0.74099   0.66518   0.11367   1.000
    H108    H    0.27281   0.81560   0.21797   1.000
    H109    H    0.77282   0.81560   0.21797   1.000
    H110    H    0.08021   0.85686   0.31723   1.000
    H111    H    0.58022   0.85686   0.31723   1.000
    H112    H    0.24198   0.95879   0.33282   1.000
    H113    H    0.74199   0.95879   0.33282   1.000
    H114    H    0.15942   0.98377   0.35393   1.000
    H115    H    0.65942   0.98377   0.35393   1.000
    H116    H    0.27481   0.85016   0.37438   1.000
    H117    H    0.77481   0.85016   0.37438   1.000
    H118    H    0.28010   0.80428   0.47720   1.000
    H119    H    0.78010   0.80427   0.47719   1.000
    H120    H    0.17141   0.92900   0.57727   1.000
    H121    H    0.67141   0.92900   0.57727   1.000
    H122    H    0.25117   0.93664   0.61088   1.000
    H123    H    0.75118   0.93664   0.61087   1.000
    H124    H    0.20414   0.84877   0.59630   1.000
    H125    H    0.70414   0.84877   0.59630   1.000
    H126    H    0.18064   0.72522   0.44575   1.000
    H127    H    0.68064   0.72522   0.44575   1.000
    H128    H    0.20470   0.73115   0.35477   1.000
    H129    H    0.70470   0.73115   0.35477   1.000
    H130    H    0.14112   0.79628   0.41962   1.000
    H131    H    0.64112   0.79628   0.41961   1.000
    H132    H    0.32657   0.51914   0.07127   1.000
    H133    H    0.82657   0.51914   0.07127   1.000
    H134    H    0.22348   0.50278   0.29410   1.000
    H135    H    0.72348   0.50278   0.29410   1.000
    H136    H    0.40759   0.44829   0.33455   1.000
    H137    H    0.90760   0.44829   0.33455   1.000
    H138    H    0.43940   0.40245   0.18429   1.000
    H139    H    0.93941   0.40245   0.18429   1.000
    H140    H    0.24670   0.46023   0.14317   1.000
    H141    H    0.74670   0.46023   0.14317   1.000
    H142    H    0.40845   0.37386   0.04114   1.000
    H143    H    0.90845   0.37386   0.04114   1.000
    H144    H    0.32589   0.37018   0.01624   1.000
    H145    H    0.82590   0.37018   0.01624   1.000
    H146    H    0.44149   0.52424   0.14980   1.000
    H147    H    0.94150   0.52424   0.14980   1.000
    H148    H    0.44674   0.67307   0.19600   1.000
    H149    H    0.94674   0.67307   0.19600   1.000
    H150    H    0.33823   0.64850   0.07114   1.000
    H151    H    0.83823   0.64850   0.07110   1.000
    H152    H    0.41803   0.67454   0.06380   1.000
    H153    H    0.91804   0.67454   0.06380   1.000
    H154    H    0.37091   0.74782   0.15162   1.000
    H155    H    0.87092   0.74782   0.15162   1.000
    H156    H    0.34717   0.72064   0.27481   1.000
    H157    H    0.84717   0.72064   0.27481   1.000
    H158    H    0.37113   0.62359   0.26869   1.000
    H159    H    0.87113   0.62359   0.26869   1.000
    H160    H    0.30769   0.62340   0.20347   1.000
    H161    H    0.80769   0.62340   0.20340   1.000
    H162    H    0.49325   0.55194   0.48084   1.000
    H163    H    0.99326   0.55194   0.48084   1.000
    H164    H    0.39017   0.79116   0.49685   1.000
    H165    H    0.89017   0.79117   0.49680   1.000
    H166    H    0.07434   0.88597   0.55106   1.000
    H167    H    0.57434   0.88597   0.55106   1.000
    H168    H    0.10614   0.78176   0.59710   1.000
    H169    H    0.60614   0.78176   0.59710   1.000
    H170    H    0.41337   0.68294   0.53962   1.000
    H171    H    0.91338   0.68294   0.53963   1.000
    H172    H    0.07512   0.66751   0.62600   1.000
    H173    H    0.57512   0.66751   0.62607   1.000
    H174    H    0.49255   0.64633   0.62973   1.000
    H175    H    0.99256   0.64633   0.62970   1.000
    H176    H    0.10822   0.62534   0.47575   1.000
    H177    H    0.60822   0.62534   0.47575   1.000
    H178    H    0.11344   0.52246   0.32696   1.000
    H179    H    0.61345   0.52245   0.32695   1.000
    H180    H    0.00483   0.42229   0.35150   1.000
    H181    H    0.50483   0.42229   0.35150   1.000
    H182    H    0.08461   0.38877   0.32546   1.000
    H183    H    0.58462   0.38877   0.32546   1.000
    H184    H    0.03751   0.40325   0.25219   1.000
    H185    H    0.53751   0.40324   0.25219   1.000
    H186    H    0.01394   0.55372   0.27932   1.000
    H187    H    0.51395   0.55372   0.27932   1.000
    H188    H    0.03795   0.64479   0.37639   1.000
    H189    H    0.53795   0.64479   0.37630   1.000
    H190    H    0.47443   0.57983   0.37654   1.000
    H191    H    0.97444   0.57983   0.37650   1.000
    C192    C    0.35416   0.26735   0.78601   1.000
    C193    C    0.85417   0.26735   0.78601   1.000
    C194    C    0.45727   0.28993   0.83971   1.000
    C195    C    0.95727   0.28993   0.83971   1.000
    C196    C    0.47436   0.20611   0.78124   1.000
    C197    C    0.97436   0.20611   0.78124   1.000
    C198    C    0.42948   0.15105   0.72180   1.000
    C199    C    0.92948   0.15105   0.72180   1.000
    C200    C    0.36793   0.18295   0.72601   1.000
    C201    C    0.86793   0.18295   0.72601   1.000
    C202    C    0.44676   0.06182   0.65237   1.000
    C203    C    0.94677   0.06182   0.65237   1.000
    C204    C    0.06374   0.04863   0.51256   1.000
    C205    C    0.56375   0.04863   0.51256   1.000
    C206    C    0.00641   0.10601   0.56072   1.000
    C207    C    0.50641   0.10601   0.56072   1.000
    C208    C    0.48628   0.16207   0.52246   1.000
    C209    C    0.98629   0.16207   0.52246   1.000
    C210    C    0.46438   0.10874   0.42939   1.000
    C211    C    0.96438   0.10874   0.42900   1.000
    C212    C    0.43765   0.23051   0.57861   1.000
    C213    C    0.93765   0.23051   0.57861   1.000
    C214    C    0.02080   0.51900   0.73282   1.000
    C215    C    0.52080   0.51899   0.73280   1.000
    C216    C    0.12392   0.55024   0.71052   1.000
    C217    C    0.62392   0.55024   0.71052   1.000
    C218    C    0.14095   0.57554   0.79431   1.000
    C219    C    0.64096   0.57554   0.79431   1.000
    C220    C    0.09604   0.57102   0.84920   1.000
    C221    C    0.59604   0.57102   0.84920   1.000
    C222    C    0.03451   0.54333   0.81718   1.000
    C223    C    0.53451   0.54332   0.81710   1.000
    C224    C    0.11329   0.59075   0.93838   1.000
    C225    C    0.61329   0.59075   0.93838   1.000
    C226    C    0.23039   0.46399   0.95130   1.000
    C227    C    0.73039   0.46399   0.95130   1.000
    C228    C    0.17306   0.45482   0.89393   1.000
    C229    C    0.67307   0.45483   0.89393   1.000
    C230    C    0.15297   0.36040   0.83768   1.000
    C231    C    0.65297   0.36040   0.83768   1.000
    C232    C    0.13107   0.32055   0.89081   1.000
    C233    C    0.63107   0.32055   0.89081   1.000
    C234    C    0.10437   0.34811   0.76922   1.000
    C235    C    0.60437   0.34811   0.76922   1.000
    C236    C    0.18749   0.21394   0.48141   1.000
    C237    C    0.68749   0.21394   0.48141   1.000
    C238    C    0.29057   0.16023   0.45010   1.000
    C239    C    0.79057   0.16023   0.45011   1.000
    C240    C    0.30761   0.21864   0.42475   1.000
    C241    C    0.80762   0.21864   0.42475   1.000
    C242    C    0.26272   0.27808   0.42925   1.000
    C243    C    0.76273   0.27808   0.42925   1.000
    C244    C    0.20120   0.27388   0.45701   1.000
    C245    C    0.70121   0.27388   0.45701   1.000
    C246    C    0.27998   0.34741   0.40940   1.000
    C247    C    0.77998   0.34741   0.40941   1.000
    C248    C    0.39705   0.48754   0.53609   1.000
    C249    C    0.89705   0.48754   0.53609   1.000
    C250    C    0.33977   0.43932   0.54529   1.000
    C251    C    0.83977   0.43932   0.54529   1.000
    C252    C    0.31968   0.47764   0.63969   1.000
    C253    C    0.81968   0.47765   0.63900   1.000
    C254    C    0.29769   0.57067   0.67953   1.000
    C255    C    0.79769   0.57067   0.67953   1.000
    C256    C    0.27115   0.42143   0.65190   1.000
    C257    C    0.77115   0.42143   0.65198   1.000
    C258    C    0.10424   0.73268   0.21399   1.000
    C259    C    0.60424   0.73268   0.21399   1.000
    C260    C    0.20729   0.71024   0.16019   1.000
    C261    C    0.70729   0.71024   0.16019   1.000
    C262    C    0.22436   0.79409   0.21865   1.000
    C263    C    0.72436   0.79409   0.21864   1.000
    C264    C    0.17949   0.84906   0.27815   1.000
    C265    C    0.67949   0.84907   0.27815   1.000
    C266    C    0.11797   0.81710   0.27397   1.000
    C267    C    0.61797   0.81710   0.27397   1.000
    C268    C    0.19678   0.93828   0.34764   1.000
    C269    C    0.69678   0.93828   0.34764   1.000
    C270    C    0.31376   0.95133   0.48739   1.000
    C271    C    0.81376   0.95133   0.48739   1.000
    C272    C    0.25642   0.89394   0.43918   1.000
    C273    C    0.75642   0.89394   0.43918   1.000
    C274    C    0.23631   0.83782   0.47738   1.000
    C275    C    0.73631   0.83782   0.47737   1.000
    C276    C    0.21432   0.89109   0.57040   1.000
    C277    C    0.71432   0.89108   0.57039   1.000
    C278    C    0.18778   0.76924   0.42111   1.000
    C279    C    0.68778   0.76924   0.42110   1.000
    C280    C    0.27076   0.48101   0.26720   1.000
    C281    C    0.77077   0.48101   0.26720   1.000
    C282    C    0.37387   0.44978   0.28956   1.000
    C283    C    0.87387   0.44978   0.28956   1.000
    C284    C    0.39093   0.42454   0.20580   1.000
    C285    C    0.89093   0.42455   0.20580   1.000
    C286    C    0.34603   0.42908   0.15089   1.000
    C287    C    0.84604   0.42908   0.15089   1.000
    C288    C    0.28449   0.45674   0.18287   1.000
    C289    C    0.78450   0.45674   0.18287   1.000
    C290    C    0.36330   0.40935   0.06171   1.000
    C291    C    0.86330   0.40935   0.06171   1.000
    C292    C    0.48040   0.53611   0.04876   1.000
    C293    C    0.98040   0.53611   0.04876   1.000
    C294    C    0.42308   0.54528   0.10612   1.000
    C295    C    0.92308   0.54528   0.10612   1.000
    C296    C    0.40298   0.63969   0.16234   1.000
    C297    C    0.90298   0.63969   0.16230   1.000
    C298    C    0.38110   0.67954   0.10919   1.000
    C299    C    0.88110   0.67955   0.10910   1.000
    C300    C    0.35432   0.65193   0.23070   1.000
    C301    C    0.85433   0.65193   0.23000   1.000
    C302    C    0.43746   0.78602   0.51862   1.000
    C303    C    0.93747   0.78602   0.51863   1.000
    C304    C    0.04061   0.83957   0.54969   1.000
    C305    C    0.54061   0.83957   0.54969   1.000
    C306    C    0.05765   0.78115   0.57504   1.000
    C307    C    0.55766   0.78115   0.57504   1.000
    C308    C    0.01273   0.72181   0.57068   1.000
    C309    C    0.51273   0.72181   0.57067   1.000
    C310    C    0.45118   0.72608   0.54301   1.000
    C311    C    0.95119   0.72608   0.54302   1.000
    C312    C    0.02997   0.65250   0.59056   1.000
    C313    C    0.52997   0.65250   0.59056   1.000
    C314    C    0.14705   0.51237   0.46392   1.000
    C315    C    0.64705   0.51237   0.46392   1.000
    C316    C    0.08976   0.56058   0.45471   1.000
    C317    C    0.58976   0.56058   0.45471   1.000
    C318    C    0.06966   0.52225   0.36030   1.000
    C319    C    0.56966   0.52225   0.36030   1.000
    C320    C    0.04772   0.42920   0.32046   1.000
    C321    C    0.54772   0.42919   0.32046   1.000
    C322    C    0.02107   0.57842   0.34803   1.000
    C323    C    0.52108   0.57842   0.34803   1.000
    Br324   Br   0.44755   0.86529   0.32300   1.000
    Br325   Br   0.94755   0.86529   0.32300   1.000
    Br326   Br   0.11416   0.45836   0.13442   1.000
    Br327   Br   0.61416   0.45836   0.13442   1.000
    Br328   Br   0.28077   0.67596   0.54128   1.000
    Br329   Br   0.78078   0.67596   0.54128   1.000
    Br330   Br   0.19753   0.13467   0.67620   1.000
    Br331   Br   0.69754   0.13466   0.67620   1.000
    Br332   Br   0.36416   0.54173   0.86564   1.000
    Br333   Br   0.86416   0.54173   0.86564   1.000
    Br334   Br   0.03077   0.32397   0.45875   1.000
    Br335   Br   0.53077   0.32397   0.45875   1.000
    N336    N    0.39834   0.32100   0.84184   1.000
    N337    N    0.89834   0.32100   0.84184   1.000
    N338    N    0.45332   0.05470   0.56679   1.000
    N339    N    0.95332   0.05470   0.56679   1.000
    N340    N    0.06500   0.52129   0.67930   1.000
    N341    N    0.56500   0.52129   0.67932   1.000
    N342    N    0.11994   0.51218   0.94528   1.000
    N343    N    0.61994   0.51218   0.94528   1.000
    N344    N    0.23167   0.15812   0.47913   1.000
    N345    N    0.73167   0.15813   0.47913   1.000
    N346    N    0.28663   0.43309   0.48788   1.000
    N347    N    0.78664   0.43309   0.48788   1.000
    N348    N    0.14839   0.67910   0.15811   1.000
    N349    N    0.64840   0.67910   0.15811   1.000
    N350    N    0.20332   0.94528   0.43316   1.000
    N351    N    0.70333   0.94528   0.43316   1.000
    N352    N    0.31495   0.47870   0.32072   1.000
    N353    N    0.81496   0.47870   0.32072   1.000
    N354    N    0.36995   0.48789   0.05470   1.000
    N355    N    0.86996   0.48789   0.05470   1.000
    N356    N    0.48167   0.84176   0.52079   1.000
    N357    N    0.98168   0.84176   0.52080   1.000
    N358    N    0.03664   0.56681   0.51211   1.000
    N359    N    0.53664   0.56681   0.51211   1.000
    O360    O    0.06141   0.96873   0.48723   1.000
    O361    O    0.56141   0.96873   0.48720   1.000
    O362    O    0.11074   0.08680   0.50272   1.000
    O363    O    0.61074   0.08680   0.50272   1.000
    O364    O    0.22803   0.51848   0.03124   1.000
    O365    O    0.72803   0.51848   0.03124   1.000
    O366    O    0.27738   0.41595   0.91309   1.000
    O367    O    0.77739   0.41595   0.91309   1.000
    O368    O    0.39470   0.51265   0.48142   1.000
    O369    O    0.89470   0.51266   0.48142   1.000
    O370    O    0.44403   0.49762   0.58422   1.000
    O371    O    0.94403   0.49762   0.58422   1.000
    O372    O    0.31141   0.03124   0.51278   1.000
    O373    O    0.81141   0.03124   0.51278   1.000
    O374    O    0.36074   0.91316   0.49726   1.000
    O375    O    0.86074   0.91316   0.49726   1.000
    O376    O    0.47803   0.48159   0.96883   1.000
    O377    O    0.97803   0.48159   0.96883   1.000
    O378    O    0.02741   0.58413   0.08698   1.000
    O379    O    0.52741   0.58413   0.08698   1.000
    O380    O    0.14470   0.48728   0.51861   1.000
    O381    O    0.64471   0.48728   0.51861   1.000
    O382    O    0.19401   0.50228   0.41579   1.000
    O383    O    0.69402   0.50228   0.41579   1.000
loop_
    _geom_bond_atom_site_label_1
    _geom_bond_atom_site_label_2
    _geom_bond_distance
    _geom_bond_site_symmetry_2
    _ccdc_geom_bond_type
    H145   C291      1.09907      .   S
    H144   C290      1.09907      .   S
    O365   Zn3       2.22677      .   S
    O365   C227      1.27732  1_554   S
    O364   Zn2       2.22677      .   S
    O364   C226      1.27732  1_554   S
    H142   C290      1.09873      .   S
    H143   C291      1.09874      .   S
    C293   O378      1.26509  1_655   S
    C293   C295      1.54091      .   S
    C293   O377      1.27730  1_554   S
    C292   O379      1.26519      .   S
    C292   C294      1.54091      .   S
    C292   O376      1.27731  1_554   S
    N355   C291      1.49215      .   S
    N355   H133      1.03295      .   S
    N355   C295      1.48773      .   S
    N355   Zn9       2.11443  1_554   S
    N354   C290      1.49214      .   S
    N354   H132      1.03295      .   S
    N354   C294      1.48773      .   S
    N354   Zn8       2.11443  1_554   S
    C291   C287      1.50893      .   S
    C290   C286      1.50893      .   S
    H153   C299      1.09708      .   S
    H152   C298      1.09823      .   S
    H151   C299      1.09925      .   S
    H150   C298      1.09959      .   S
    Zn3    O379      2.17114      .   S
    Zn3    Br327     2.38495      .   S
    Zn3    N349      2.07933      .   S
    Zn3    N343      2.11546  1_554   S
    Zn2    O378      2.17115      .   S
    Zn2    Br326     2.38495      .   S
    Zn2    N348      2.07933      .   S
    Zn2    N342      2.11546  1_554   S
    C294   H146      1.10267      .   S
    C294   C296      1.54305      .   S
    C295   H147      1.10267      .   S
    C295   C297      1.54297      .   S
    C299   H155      1.09852      .   S
    C299   C297      1.53089      .   S
    C298   H154      1.09830      .   S
    C298   C296      1.53011      .   S
    H107   C261      1.08748      .   S
    H106   C260      1.08748      .   S
    H141   C289      1.09155      .   S
    H140   C288      1.09155      .   S
    C286   C288      1.40017      .   S
    C286   C284      1.39920      .   S
    C287   C289      1.40017      .   S
    C287   C285      1.39921      .   S
    N348   C260      1.34997      .   S
    N348   C258      1.35444      .   S
    N349   C261      1.34997      .   S
    N349   C259      1.35444      .   S
    C261   C263      1.39045      .   S
    C260   C262      1.39049      .   S
    C297   H149      1.09928      .   S
    C297   C301      1.52135      .   S
    C296   H148      1.09909      .   S
    C296   C300      1.53009      .   S
    C288   C280      1.38768      .   S
    C289   C281      1.38767      .   S
    H139   C285      1.09024      .   S
    H138   C284      1.09024      .   S
    H161   C301      1.09767      .   S
    H160   C300      1.10001      .   S
    C285   C283      1.39041      .   S
    C284   C282      1.39041      .   S
    H105   C259      1.08805      .   S
    H104   C258      1.08805      .   S
    C258   C266      1.38763      .   S
    C259   C267      1.38763      .   S
    H108   C262      1.09026      .   S
    H109   C263      1.09023      .   S
    C263   C265      1.39914      .   S
    C262   C264      1.39905      .   S
    C301   H159      1.11016      .   S
    C301   H157      1.10042      .   S
    C300   H158      1.09931      .   S
    C300   H156      1.09834      .   S
    H185   C321      1.09840      .   S
    H184   C320      1.09841      .   S
    C280   H134      1.08779      .   S
    C280   N352      1.35456      .   S
    C281   H135      1.08778      .   S
    C281   N353      1.35457      .   S
    C267   C265      1.40010      .   S
    C267   H111      1.09150      .   S
    C266   C264      1.40009      .   S
    C266   H110      1.09149      .   S
    C265   C269      1.50860      .   S
    C264   C268      1.50860      .   S
    H187   C323      1.09836      .   S
    H186   C322      1.09836      .   S
    C283   N353      1.35000      .   S
    C283   H137      1.08752      .   S
    C282   N352      1.35002      .   S
    C282   H136      1.08751      .   S
    C320   H182      1.09813      .   S
    C320   H180      1.09960      .   S
    C320   C318      1.53017      .   S
    C321   H183      1.09813      .   S
    C321   H181      1.09960      .   S
    C321   C319      1.53017      .   S
    N353   Zn5       2.07947      .   S
    N352   Zn4       2.07946      .   S
    Br324  Zn0       2.39766      .   S
    Br325  Zn1       2.33169      .   S
    H179   C319      1.09932      .   S
    H178   C318      1.09922      .   S
    H113   C269      1.09873      .   S
    H112   C268      1.09873      .   S
    C269   H115      1.09905      .   S
    C269   N351      1.49140      .   S
    C268   H114      1.09905      .   S
    C268   N350      1.49139      .   S
    C322   C318      1.53005      .   S
    C322   H188      1.09942      .   S
    C322   H191      1.09955  1_455   S
    C323   C319      1.53005      .   S
    C323   H189      1.09957      .   S
    C323   H190      1.09999      .   S
    H128   C278      1.09949      .   S
    H129   C279      1.09936      .   S
    C318   C316      1.54310      .   S
    C319   C317      1.54309      .   S
    H84    C246      1.09905      .   S
    H85    C247      1.09918      .   S
    H82    C246      1.09898      .   S
    H83    C247      1.09873      .   S
    H116   C272      1.10295      .   S
    H117   C273      1.10294      .   S
    H32    C211      1.09601  1_455   S
    H33    C210      1.09812      .   S
    H78    C240      1.09027      .   S
    H79    C241      1.09027      .   S
    H35    C211      1.09277      .   S
    H34    C210      1.09823      .   S
    C246   C242      1.50876      .   S
    C246   N346      1.49161      .   S
    C247   C243      1.50864      .   S
    C247   N347      1.49153      .   S
    O382   Zn4       2.17178      .   S
    O382   C314      1.26520      .   S
    O383   Zn5       2.17178      .   S
    O383   C315      1.26520      .   S
    H131   C279      1.09997      .   S
    H130   C278      1.09998      .   S
    C279   H127      1.09846      .   S
    C279   C275      1.53016      .   S
    C278   H126      1.09833      .   S
    C278   C274      1.53014      .   S
    H31    C211      1.10091      .   S
    H30    C210      1.09959      .   S
    C241   C243      1.39914      .   S
    C241   C239      1.39054      .   S
    C240   C242      1.39914      .   S
    C240   C238      1.39042      .   S
    C211   C209      1.53575      .   S
    C242   C244      1.40018      .   S
    C243   C245      1.40016      .   S
    C210   C208      1.53023      .   S
    N351   C273      1.48731      .   S
    N351   H103      1.03294      .   S
    N351   Zn7       2.11498  1_565   S
    N350   C272      1.48731      .   S
    N350   H102      1.03265      .   S
    N350   Zn6       2.11497  1_565   S
    C272   C274      1.54307      .   S
    C272   C270      1.54080      .   S
    C273   C275      1.54295      .   S
    C273   C271      1.54080      .   S
    H76    C238      1.08746      .   S
    H77    C239      1.08740      .   S
    Zn4    O368      2.22694      .   S
    Zn4    N346      2.11520      .   S
    Zn4    Br328     2.38490      .   S
    Zn5    O369      2.22694      .   S
    Zn5    N347      2.11518      .   S
    Zn5    Br329     2.38492      .   S
    C238   N344      1.35003      .   S
    C239   N345      1.34998      .   S
    C316   C314      1.54083      .   S
    C316   H176      1.10296      .   S
    C316   N358      1.48737      .   S
    C317   C315      1.54082      .   S
    C317   H177      1.10298      .   S
    C317   N359      1.48737      .   S
    C245   H81       1.09154      .   S
    C245   C237      1.38770      .   S
    C244   H80       1.09153      .   S
    C244   C236      1.38769      .   S
    Br335  Zn11      2.38490      .   S
    Br334  Zn10      2.38491      .   S
    C314   O380      1.27724      .   S
    C315   O381      1.27723      .   S
    Zn1    O360      2.22347  1_655   S
    Zn1    O375      2.18930      .   S
    Zn1    N357      2.13501      .   S
    Zn1    N339      2.13289  1_565   S
    Zn0    O361      2.22800      .   S
    Zn0    O374      2.17114      .   S
    Zn0    N356      2.07953      .   S
    Zn0    N338      2.11510  1_565   S
    H119   C275      1.09929      .   S
    H118   C274      1.09928      .   S
    C275   C277      1.53013      .   S
    C274   C276      1.53013      .   S
    N345   C237      1.35452      .   S
    N345   Zn7       2.07951      .   S
    N344   C236      1.35452      .   S
    N344   Zn6       2.07949      .   S
    H162   N359      1.03296      .   S
    H163   N358      1.03285  1_655   S
    C236   H74       1.08807      .   S
    C237   H75       1.08813      .   S
    O368   C248      1.27712      .   S
    O369   C249      1.27713      .   S
    O361   C205      1.27739  1_565   S
    O360   C204      1.27750  1_565   S
    C271   O375      1.26524      .   S
    C271   O373      1.27750  1_565   S
    C270   O374      1.26524      .   S
    C270   O372      1.27750  1_565   S
    N346   H72       1.03296      .   S
    N346   C250      1.48741      .   S
    N347   H73       1.03296      .   S
    N347   C251      1.48739      .   S
    H165   C303      1.08851      .   S
    H164   C302      1.08805      .   S
    O362   C204      1.26527      .   S
    O362   Zn6       2.17114      .   S
    O363   C205      1.26525      .   S
    O363   Zn7       2.17114      .   S
    N358   Zn10      2.11509      .   S
    N358   C312      1.49155      .   S
    N359   Zn11      2.11507      .   S
    N359   C313      1.49156      .   S
    C204   C206      1.54076      .   S
    C205   C207      1.54077      .   S
    O373   Zn7       2.22797      .   S
    O372   Zn6       2.22796      .   S
    O381   Zn11      2.22693      .   S
    O380   Zn10      2.22692      .   S
    C302   N356      1.35451      .   S
    C302   C310      1.38774      .   S
    C303   N357      1.35450      .   S
    C303   C311      1.38772      .   S
    N356   C305      1.34999      .   S
    N357   C304      1.34983  1_655   S
    C209   H28       1.09920  1_655   S
    C209   C206      1.54289  1_655   S
    C209   C213      1.53008      .   S
    C208   H29       1.09930      .   S
    C208   C207      1.54292      .   S
    C208   C212      1.53008      .   S
    H86    C250      1.10296      .   S
    H87    C251      1.10297      .   S
    Zn6    Br330     2.38451      .   S
    Zn7    Br331     2.38451      .   S
    C249   C251      1.54090      .   S
    C249   O371      1.26527      .   S
    C248   C250      1.54091      .   S
    C248   O370      1.26527      .   S
    H170   C310      1.09153      .   S
    H171   C311      1.09153      .   S
    C310   C309      1.40013      .   S
    C311   C308      1.40003  1_655   S
    C251   C253      1.53201      .   S
    C250   C252      1.54297      .   S
    C305   H167      1.08738      .   S
    C305   C307      1.39053      .   S
    C304   H166      1.08738      .   S
    C304   C306      1.39051      .   S
    Zn11   O370      2.17177      .   S
    Zn11   N341      2.07949      .   S
    Zn10   O371      2.17165  1_455   S
    Zn10   N340      2.07916      .   S
    H12    N338      1.03334      .   S
    H13    N339      1.03334      .   S
    H36    C212      1.09828      .   S
    H37    C213      1.09829      .   S
    C207   N338      1.48725      .   S
    C207   H27       1.10292      .   S
    C206   N339      1.48719  1_455   S
    C206   H26       1.10280      .   S
    N339   C203      1.49158      .   S
    N338   C202      1.49159      .   S
    C277   H121      1.09957      .   S
    C277   H125      1.09834      .   S
    C277   H123      1.09815      .   S
    C276   H120      1.09959      .   S
    C276   H124      1.09820      .   S
    C276   H122      1.09815      .   S
    C309   C307      1.39911      .   S
    C309   C313      1.50874      .   S
    C308   C306      1.39917      .   S
    C308   C312      1.50863      .   S
    C307   H169      1.09023      .   S
    C306   H168      1.09025      .   S
    C212   H40       1.10000      .   S
    C212   H38       1.09829      .   S
    C213   H41       1.10001      .   S
    C213   H39       1.09955      .   S
    C313   H173      1.09873      .   S
    C313   H174      1.09905      .   S
    C312   H172      1.09815      .   S
    C312   H175      1.09857  1_455   S
    H101   C257      1.10412      .   S
    H100   C256      1.09941      .   S
    H98    C256      1.09957      .   S
    H99    C257      1.09945      .   S
    C253   C257      1.53613      .   S
    C253   H89       1.10625      .   S
    C253   C255      1.52923      .   S
    C252   C256      1.52945      .   S
    C252   H88       1.09936      .   S
    C252   C254      1.53017      .   S
    H24    C202      1.09905      .   S
    H25    C203      1.09906      .   S
    H91    C255      1.09957      .   S
    H90    C254      1.09956      .   S
    C256   H96       1.09954      .   S
    C257   H97       1.09837      .   S
    C203   H23       1.09871      .   S
    C203   C199      1.50866      .   S
    C202   H22       1.09870      .   S
    C202   C198      1.50866      .   S
    H47    C217      1.08811      .   S
    H46    C216      1.08754      .   S
    H93    C255      1.09808      .   S
    H92    C254      1.09811      .   S
    N340   C216      1.35013      .   S
    N340   C214      1.35482      .   S
    N341   C217      1.35002      .   S
    N341   C215      1.35432      .   S
    C255   H95       1.09832      .   S
    C254   H94       1.09832      .   S
    H21    C201      1.09207      .   S
    H20    C200      1.09151      .   S
    H44    C215      1.08802      .   S
    H45    C214      1.08795  1_655   S
    C217   C219      1.39041      .   S
    C216   C218      1.39041      .   S
    C199   C201      1.40012      .   S
    C199   C197      1.39911      .   S
    C198   C200      1.40014      .   S
    C198   C196      1.39908      .   S
    H66    C234      1.09843      .   S
    H67    C235      1.09834      .   S
    C201   C193      1.38768      .   S
    C200   C192      1.38768      .   S
    H69    C235      1.09935      .   S
    H68    C234      1.09935      .   S
    C215   C223      1.38670      .   S
    C214   C222      1.38772      .   S
    C234   H70       1.10003      .   S
    C234   C230      1.53018      .   S
    C235   H71       1.10002      .   S
    C235   C231      1.53019      .   S
    C197   H18       1.09008  1_655   S
    C197   C195      1.39047      .   S
    C196   H19       1.09022      .   S
    C196   C194      1.39046      .   S
    C193   H15       1.08807      .   S
    C193   N337      1.35449      .   S
    C192   H14       1.08807      .   S
    C192   N336      1.35447      .   S
    C219   H49       1.09028      .   S
    C219   C221      1.39924      .   S
    C218   H48       1.09028      .   S
    C218   C220      1.39923      .   S
    H59    C231      1.09959      .   S
    H58    C230      1.09959      .   S
    C223   C221      1.40048      .   S
    C223   H51       1.09250      .   S
    C222   C220      1.40013      .   S
    C222   H50       1.09150  1_455   S
    C231   C233      1.53000      .   S
    C231   C229      1.54306      .   S
    C230   C232      1.53001      .   S
    C230   C228      1.54305      .   S
    C195   N337      1.34995      .   S
    C195   H17       1.08742      .   S
    C194   N336      1.34997      .   S
    C194   H16       1.08741      .   S
    N336   Zn8       2.07921      .   S
    N337   Zn9       2.07921      .   S
    H65    C233      1.09850      .   S
    H64    C232      1.09831      .   S
    C221   C225      1.50870      .   S
    C220   C224      1.50871      .   S
    H57    C229      1.10296      .   S
    H56    C228      1.10297      .   S
    Br332  Zn8       2.38500      .   S
    Br333  Zn9       2.38500      .   S
    C233   H61       1.09959      .   S
    C233   H63       1.09815      .   S
    C232   H60       1.09959      .   S
    C232   H62       1.09815      .   S
    C229   N343      1.48736      .   S
    C229   C227      1.54090      .   S
    C228   N342      1.48737      .   S
    C228   C226      1.54088      .   S
    O367   Zn9       2.17113      .   S
    O367   C227      1.26522      .   S
    O366   Zn8       2.17113      .   S
    O366   C226      1.26522      .   S
    Zn8    O376      2.22694      .   S
    Zn9    O377      2.22696      .   S
    H42    N342      1.03292      .   S
    H43    N343      1.03293      .   S
    C224   N342      1.49156      .   S
    C224   H52       1.09876      .   S
    C224   H54       1.09912      .   S
    C225   N343      1.49156      .   S
    C225   H53       1.09875      .   S
    C225   H55       1.09911      .   S
