# CIF file generated by openbabel 2.4.90, see http://openbabel.sf.net
data_I
_chemical_name_common ''
_cell_length_a 16.171
_cell_length_b 16.186
_cell_length_c 26.823
_cell_angle_alpha 84.506
_cell_angle_beta 84.475
_cell_angle_gamma 84.441
_space_group_name_H-M_alt 'P 1'
_space_group_name_Hall 'P 1'
loop_
    _symmetry_equiv_pos_as_xyz
    x,y,z
loop_
    _atom_site_label
    _atom_site_type_symbol
    _atom_site_fract_x
    _atom_site_fract_y
    _atom_site_fract_z
    _atom_site_occupancy
    Mc0     Mc   0.33045   0.21233   0.16202   1.000
    Mc1     Mc   0.93388   0.21034   0.18742   1.000
    Mc2     Mc   0.15965   0.41444   0.35635   1.000
    Mc3     Mc   0.16276   0.02460   0.37571   1.000
    Mc4     Mc   0.83724   0.97539   0.62430   1.000
    Mc5     Mc   0.84034   0.58555   0.64357   1.000
    Mc6     Mc   0.06607   0.78962   0.81261   1.000
    Mc7     Mc   0.66946   0.78766   0.83799   1.000
    Mc8     Mc   0.97471   0.83978   0.12449   1.000
    Mc9     Mc   0.58500   0.84218   0.14311   1.000
    Mc10    Mc   0.78689   0.06640   0.31414   1.000
    Mc11    Mc   0.78464   0.67019   0.33825   1.000
    Mc12    Mc   0.21534   0.32981   0.66169   1.000
    Mc13    Mc   0.21308   0.93362   0.68589   1.000
    Mc14    Mc   0.41496   0.15787   0.85689   1.000
    Mc15    Mc   0.02525   0.16022   0.87549   1.000
