# CIF file generated by openbabel 2.4.90, see http://openbabel.sf.net
data_I
_chemical_name_common ''
_cell_length_a 16.171
_cell_length_b 16.186
_cell_length_c 26.823
_cell_angle_alpha 84.506
_cell_angle_beta 84.475
_cell_angle_gamma 84.441
_space_group_name_H-M_alt 'P 1'
_space_group_name_Hall 'P 1'
loop_
    _symmetry_equiv_pos_as_xyz
    x,y,z
loop_
    _atom_site_label
    _atom_site_type_symbol
    _atom_site_fract_x
    _atom_site_fract_y
    _atom_site_fract_z
    _atom_site_occupancy
    H0      H    0.01563   0.41421   0.50860   1.000
    H1      H    0.16798   0.40991   0.51447   1.000
    H2      H    0.19500   0.18859   0.43310   1.000
    H3      H    0.04065   0.20395   0.43015   1.000
    H4      H    0.31848   0.23599   0.45907   1.000
    H5      H    0.29752   0.39802   0.51285   1.000
    H6      H    0.44877   0.22144   0.45976   1.000
    H7      H    0.60202   0.22174   0.46278   1.000
    H8      H    0.57523   0.43552   0.53765   1.000
    H9      H    0.41914   0.44699   0.53672   1.000
    H10     H    0.41155   0.01821   0.01010   1.000
    H11     H    0.40786   0.17051   0.01580   1.000
    H12     H    0.18883   0.19852   0.93234   1.000
    H13     H    0.20336   0.04431   0.92965   1.000
    H14     H    0.23614   0.32147   0.95856   1.000
    H15     H    0.39819   0.30082   0.01239   1.000
    H16     H    0.22426   0.45155   0.95600   1.000
    H17     H    0.22381   0.60474   0.95880   1.000
    H18     H    0.43332   0.57915   0.03767   1.000
    H19     H    0.44528   0.42315   0.03735   1.000
    H20     H    0.58835   0.98174   0.98990   1.000
    H21     H    0.59207   0.82945   0.98419   1.000
    H22     H    0.81117   0.80150   0.06766   1.000
    H23     H    0.79660   0.95572   0.07034   1.000
    H24     H    0.76385   0.67853   0.04146   1.000
    H25     H    0.60181   0.69915   0.98763   1.000
    H26     H    0.77574   0.54844   0.04396   1.000
    H27     H    0.77619   0.39524   0.04110   1.000
    H28     H    0.56667   0.42082   0.96236   1.000
    H29     H    0.55472   0.57682   0.96267   1.000
    H30     H    0.98439   0.58578   0.49134   1.000
    H31     H    0.83204   0.59007   0.48555   1.000
    H32     H    0.80501   0.81138   0.56692   1.000
    H33     H    0.95937   0.79603   0.56987   1.000
    H34     H    0.68154   0.76399   0.54095   1.000
    H35     H    0.70250   0.60197   0.48710   1.000
    H36     H    0.55125   0.77855   0.54025   1.000
    H37     H    0.39801   0.77826   0.53724   1.000
    H38     H    0.42478   0.56448   0.46237   1.000
    H39     H    0.58087   0.55300   0.46329   1.000
    C40     C    0.77485   0.86764   0.23048   1.000
    C41     C    0.05838   0.36604   0.49216   1.000
    C42     C    0.14344   0.36260   0.49534   1.000
    C43     C    0.19587   0.29829   0.47410   1.000
    C44     C    0.15783   0.24000   0.45025   1.000
    C45     C    0.07203   0.24778   0.44842   1.000
    C46     C    0.28586   0.29019   0.47599   1.000
    C47     C    0.32979   0.34343   0.49628   1.000
    C48     C    0.41989   0.33553   0.49773   1.000
    C49     C    0.47323   0.27079   0.47731   1.000
    C50     C    0.55855   0.26981   0.47892   1.000
    C51     C    0.54378   0.39016   0.52062   1.000
    C52     C    0.45764   0.39572   0.52021   1.000
    C53     C    0.86631   0.77618   0.73007   1.000
    C54     C    0.36403   0.06116   0.99318   1.000
    C55     C    0.36101   0.14617   0.99624   1.000
    C56     C    0.29766   0.19887   0.97423   1.000
    C57     C    0.23960   0.16113   0.95000   1.000
    C58     C    0.24693   0.07539   0.94830   1.000
    C59     C    0.29022   0.28887   0.97564   1.000
    C60     C    0.34373   0.33297   0.99558   1.000
    C61     C    0.33595   0.42313   0.99643   1.000
    C62     C    0.27238   0.47621   0.97461   1.000
    C63     C    0.27105   0.56153   0.97600   1.000
    C64     C    0.38903   0.54741   0.01990   1.000
    C65     C    0.39481   0.46129   0.01981   1.000
    C66     C    0.13363   0.22381   0.26995   1.000
    C67     C    0.63590   0.93881   0.00685   1.000
    C68     C    0.63894   0.85380   0.00379   1.000
    C69     C    0.70231   0.80112   0.02579   1.000
    C70     C    0.76038   0.83888   0.05000   1.000
    C71     C    0.75303   0.92462   0.05168   1.000
    C72     C    0.70977   0.71111   0.02438   1.000
    C73     C    0.65626   0.66701   0.00444   1.000
    C74     C    0.66405   0.57685   0.00358   1.000
    C75     C    0.72762   0.52377   0.02541   1.000
    C76     C    0.72895   0.43845   0.02402   1.000
    C77     C    0.61097   0.45256   0.98012   1.000
    C78     C    0.60519   0.53869   0.98022   1.000
    C79     C    0.22512   0.13240   0.76953   1.000
    C80     C    0.94165   0.63395   0.50785   1.000
    C81     C    0.85659   0.63739   0.50467   1.000
    C82     C    0.80415   0.70169   0.52591   1.000
    C83     C    0.84219   0.75999   0.54976   1.000
    C84     C    0.92799   0.75220   0.55160   1.000
    C85     C    0.71416   0.70979   0.52402   1.000
    C86     C    0.67023   0.65656   0.50373   1.000
    C87     C    0.58013   0.66446   0.50229   1.000
    C88     C    0.52679   0.72920   0.52270   1.000
    C89     C    0.44147   0.73019   0.52110   1.000
    C90     C    0.45624   0.60983   0.47940   1.000
    C91     C    0.54237   0.60428   0.47980   1.000
    N92     N    0.59395   0.32891   0.49970   1.000
    N93     N    0.02272   0.30993   0.46900   1.000
    N94     N    0.32875   0.59726   0.99792   1.000
    N95     N    0.30833   0.02584   0.96948   1.000
    N96     N    0.67124   0.40272   0.00211   1.000
    N97     N    0.69160   0.97415   0.03054   1.000
    N98     N    0.40607   0.67109   0.50020   1.000
    N99     N    0.97730   0.69007   0.53101   1.000
loop_
    _geom_bond_atom_site_label_1
    _geom_bond_atom_site_label_2
    _geom_bond_distance
    _geom_bond_site_symmetry_2
    _ccdc_geom_bond_type
    N96    C76       1.35127      .   S
    N96    C77       1.34763  1_554   S
    C74    C73       1.45477      .   S
    C74    C75       1.40927      .   S
    C74    C78       1.40820  1_554   S
    C68    C67       1.38210      .   S
    C68    C69       1.40588      .   S
    C68    H21       1.08645  1_554   S
    C73    C72       1.35144      .   S
    C73    H25       1.09182  1_554   S
    C67    N97       1.34984      .   S
    C67    H20       1.08809  1_554   S
    H10    C54       1.08762  1_554   S
    H15    C60       1.09183  1_554   S
    H11    C55       1.08560  1_554   S
    C65    C64       1.38835      .   S
    C65    H19       1.09050      .   S
    C65    C61       1.40841  1_554   S
    C64    H18       1.08999      .   S
    C64    N94       1.34755  1_554   S
    C76    C75       1.38305      .   S
    C76    H27       1.08861      .   S
    C72    C69       1.45392      .   S
    C72    H24       1.09291      .   S
    C75    H26       1.08875      .   S
    C69    C70       1.40772      .   S
    N97    C71       1.34835      .   S
    C70    C71       1.38607      .   S
    C70    H22       1.09027      .   S
    C71    H23       1.08865      .   S
    H3     C45       1.08865      .   S
    H2     C44       1.09009      .   S
    C45    C44       1.38620      .   S
    C45    N93       1.34846      .   S
    C44    C43       1.40777      .   S
    H4     C46       1.09287      .   S
    H6     C49       1.08869      .   S
    H38    C90       1.08982      .   S
    H7     C50       1.08940      .   S
    H39    C91       1.09075      .   S
    N93    C41       1.34969      .   S
    C43    C46       1.45384      .   S
    C43    C42       1.40594      .   S
    C46    C47       1.35146      .   S
    C49    C50       1.38302      .   S
    C49    C48       1.40918      .   S
    C50    N92       1.35032      .   S
    C90    C91       1.38813      .   S
    C90    N98       1.34740      .   S
    C91    C87       1.40857      .   S
    H31    C81       1.08644      .   S
    H35    C86       1.09241      .   S
    H30    C80       1.08836      .   S
    C41    C42       1.38177      .   S
    C41    H0        1.08764      .   S
    C42    H1        1.08657      .   S
    C47    C48       1.45408      .   S
    C47    H5        1.09176      .   S
    C48    C52       1.40854      .   S
    N92    C51       1.34865      .   S
    N98    C89       1.35184      .   S
    C87    C86       1.45409      .   S
    C87    C88       1.40916      .   S
    C86    C85       1.35132      .   S
    C81    C80       1.38177      .   S
    C81    C82       1.40586      .   S
    C80    N99       1.34973      .   S
    C52    C51       1.38812      .   S
    C52    H9        1.09072      .   S
    C51    H8        1.08988      .   S
    C89    C88       1.38302      .   S
    C89    H37       1.08943      .   S
    C88    H36       1.08864      .   S
    C85    C82       1.45382      .   S
    C85    H34       1.09289      .   S
    C82    C83       1.40778      .   S
    N99    C84       1.34848      .   S
    C83    C84       1.38625      .   S
    C83    H32       1.09013      .   S
    C84    H33       1.08864      .   S
    H13    C58       1.08835      .   S
    H12    C57       1.09013      .   S
    C58    C57       1.38611      .   S
    C58    N95       1.34866      .   S
    C57    C56       1.40781      .   S
    H16    C62       1.08960      .   S
    H14    C59       1.09289      .   S
    H17    C63       1.09000      .   S
    H28    C77       1.08988      .   S
    H29    C78       1.09060      .   S
    N95    C54       1.34980      .   S
    C56    C59       1.45391      .   S
    C56    C55       1.40582      .   S
    C62    C63       1.38305      .   S
    C62    C61       1.40918      .   S
    C59    C60       1.35140      .   S
    C63    N94       1.35132      .   S
    C77    C78       1.38838      .   S
    C54    C55       1.38210      .   S
    C60    C61       1.45476      .   S
