# CIF file generated by openbabel 2.4.90, see http://openbabel.sf.net
data_I
_chemical_name_common ''
_cell_length_a 16.171
_cell_length_b 16.186
_cell_length_c 26.823
_cell_angle_alpha 84.506
_cell_angle_beta 84.475
_cell_angle_gamma 84.441
_space_group_name_H-M_alt 'P 1'
_space_group_name_Hall 'P 1'
loop_
    _symmetry_equiv_pos_as_xyz
    x,y,z
loop_
    _atom_site_label
    _atom_site_type_symbol
    _atom_site_fract_x
    _atom_site_fract_y
    _atom_site_fract_z
    _atom_site_occupancy
    Lv0     Lv   0.13363   0.22381   0.26995   1.000
    Lv1     Lv   0.31734   0.31124   0.98483   1.000
    Lv2     Lv   0.86631   0.77618   0.73007   1.000
    Lv3     Lv   0.77485   0.86764   0.23048   1.000
    Lv4     Lv   0.30806   0.31773   0.48547   1.000
    Lv5     Lv   0.68264   0.68875   0.01518   1.000
    Lv6     Lv   0.22512   0.13240   0.76953   1.000
    Lv7     Lv   0.69196   0.68226   0.51454   1.000
