# CIF file generated by openbabel 2.4.90, see http://openbabel.sf.net
data_I
_chemical_name_common ''
_cell_length_a 16.171
_cell_length_b 16.186
_cell_length_c 26.823
_cell_angle_alpha 84.506
_cell_angle_beta 84.475
_cell_angle_gamma 84.441
_space_group_name_H-M_alt 'P 1'
_space_group_name_Hall 'P 1'
loop_
    _symmetry_equiv_pos_as_xyz
    x,y,z
loop_
    _atom_site_label
    _atom_site_type_symbol
    _atom_site_fract_x
    _atom_site_fract_y
    _atom_site_fract_z
    _atom_site_occupancy
    Zn0     Zn   0.89549   0.31560   0.47090   1.000
    Zn1     Zn   0.32666   0.72555   0.99186   1.000
    Zn2     Zn   0.31368   0.89881   0.97064   1.000
    Zn3     Zn   0.67335   0.27443   0.00816   1.000
    Zn4     Zn   0.68620   0.10118   0.02937   1.000
    Zn5     Zn   0.27785   0.67297   0.50660   1.000
    Zn6     Zn   0.10453   0.68440   0.52911   1.000
    Zn7     Zn   0.72217   0.32703   0.49341   1.000
    C8      C    0.76961   0.19128   0.09550   1.000
    C9      C    0.79902   0.46436   0.42339   1.000
    C10     C    0.41588   0.81044   0.05643   1.000
    C11     C    0.80506   0.23132   0.40561   1.000
    C12     C    0.17832   0.82291   0.03790   1.000
    C13     C    0.46296   0.80329   0.92245   1.000
    C14     C    0.80881   0.41608   0.55736   1.000
    C15     C    0.23036   0.80868   0.90443   1.000
    C16     C    0.81993   0.17914   0.53822   1.000
    C17     C    0.53700   0.19667   0.07760   1.000
    C18     C    0.19120   0.58391   0.44265   1.000
    C19     C    0.18010   0.82085   0.46179   1.000
    C20     C    0.20100   0.53565   0.57661   1.000
    C21     C    0.58407   0.18957   0.94360   1.000
    C22     C    0.19495   0.76872   0.59439   1.000
    C23     C    0.82164   0.17706   0.96208   1.000
    O24     O    0.72956   0.44163   0.44376   1.000
    O25     O    0.87073   0.42536   0.42896   1.000
    O26     O    0.39897   0.73747   0.04844   1.000
    O27     O    0.38509   0.87832   0.03481   1.000
    O28     O    0.87947   0.24712   0.41009   1.000
    O29     O    0.73977   0.26198   0.43066   1.000
    O30     O    0.21537   0.74989   0.03737   1.000
    O31     O    0.20496   0.88883   0.01444   1.000
    O32     O    0.44073   0.73386   0.94312   1.000
    O33     O    0.42333   0.87475   0.92758   1.000
    O34     O    0.73570   0.39905   0.54958   1.000
    O35     O    0.87667   0.38547   0.53558   1.000
    O36     O    0.24600   0.88300   0.90910   1.000
    O37     O    0.26077   0.74338   0.92953   1.000
    O38     O    0.74649   0.21548   0.53774   1.000
    O39     O    0.88562   0.20654   0.51488   1.000
    O40     O    0.55926   0.26610   0.05695   1.000
    O41     O    0.57661   0.12521   0.07240   1.000
    O42     O    0.26431   0.60093   0.45043   1.000
    O43     O    0.12335   0.61453   0.46443   1.000
    O44     O    0.75396   0.11697   0.09090   1.000
    O45     O    0.73924   0.25659   0.07047   1.000
    O46     O    0.25353   0.78450   0.46225   1.000
    O47     O    0.11441   0.79347   0.48513   1.000
    O48     O    0.27046   0.55839   0.55626   1.000
    O49     O    0.12929   0.57466   0.57104   1.000
    O50     O    0.60098   0.26253   0.95161   1.000
    O51     O    0.61488   0.12167   0.96520   1.000
    O52     O    0.12054   0.75288   0.58993   1.000
    O53     O    0.26023   0.73813   0.56932   1.000
    O54     O    0.78461   0.25010   0.96264   1.000
    O55     O    0.79500   0.11115   0.98558   1.000
loop_
    _geom_bond_atom_site_label_1
    _geom_bond_atom_site_label_2
    _geom_bond_distance
    _geom_bond_site_symmetry_2
    _ccdc_geom_bond_type
    Zn3    O40       2.16428      .   S
    Zn3    O45       2.05011      .   S
    Zn3    O50       2.03684  1_554   S
    Zn3    O54       2.10121  1_554   S
    O31    C12       1.27607      .   S
    O31    Zn2       2.02933  1_554   S
    Zn4    O41       2.04525      .   S
    Zn4    O44       2.11491      .   S
    Zn4    O51       2.14522  1_554   S
    Zn4    O55       2.03019  1_554   S
    O27    C10       1.27244      .   S
    O27    Zn2       2.14595  1_554   S
    O30    C12       1.27307      .   S
    O30    Zn1       2.10138  1_554   S
    O26    C10       1.27979      .   S
    O26    Zn1       2.03695  1_554   S
    O40    C17       1.27274      .   S
    O45    C8        1.27928      .   S
    O41    C17       1.27973      .   S
    O44    C8        1.27256      .   S
    C11    O28       1.27327      .   S
    C11    O29       1.27981      .   S
    O28    Zn0       2.10706      .   S
    C9     O25       1.28014      .   S
    C9     O24       1.27235      .   S
    O25    Zn0       2.03674      .   S
    O29    Zn7       2.05227      .   S
    C18    O42       1.28014      .   S
    C18    O43       1.27184      .   S
    O24    Zn7       2.18351      .   S
    O42    Zn5       2.03155      .   S
    C19    O46       1.27377      .   S
    C19    O47       1.27543      .   S
    O46    Zn5       2.09047      .   S
    O43    Zn6       2.14216      .   S
    Zn0    O39       2.03790      .   S
    Zn0    O35       2.14210      .   S
    O47    Zn6       2.03793      .   S
    Zn7    O38       2.09046      .   S
    Zn7    O34       2.03129      .   S
    Zn5    O48       2.18342      .   S
    Zn5    O53       2.05252      .   S
    O39    C16       1.27553      .   S
    Zn6    O49       2.03642      .   S
    Zn6    O52       2.10714      .   S
    O35    C14       1.27182      .   S
    O38    C16       1.27379      .   S
    O34    C14       1.28016      .   S
    O48    C20       1.27230      .   S
    O53    C22       1.27975      .   S
    O49    C20       1.28013      .   S
    O52    C22       1.27322      .   S
    C15    O36       1.27300      .   S
    C15    O37       1.28022      .   S
    O36    Zn2       2.11453      .   S
    C13    O33       1.27943      .   S
    C13    O32       1.27285      .   S
    O33    Zn2       2.04643      .   S
    O37    Zn1       2.05062      .   S
    O32    Zn1       2.16331      .   S
    C21    O50       1.27982      .   S
    C21    O51       1.27243      .   S
    C23    O54       1.27316      .   S
    C23    O55       1.27635      .   S
    Zn7    Zn0       2.80171      .   S
    Zn1    Zn2       2.79937      .   S
    Zn3    Zn4       2.79920      .   S
    Zn5    Zn6       2.80171      .   S
