# CIF file generated by openbabel 2.4.90, see http://openbabel.sf.net
data_I
_chemical_name_common ''
_cell_length_a 16.171
_cell_length_b 16.186
_cell_length_c 26.823
_cell_angle_alpha 84.506
_cell_angle_beta 84.475
_cell_angle_gamma 84.441
_space_group_name_H-M_alt 'P 1'
_space_group_name_Hall 'P 1'
loop_
    _symmetry_equiv_pos_as_xyz
    x,y,z
loop_
    _atom_site_label
    _atom_site_type_symbol
    _atom_site_fract_x
    _atom_site_fract_y
    _atom_site_fract_z
    _atom_site_occupancy
    N0      N    0.13363   0.22381   0.26995   1.000
    N1      N    0.31734   0.31124   0.98483   1.000
    N2      N    0.86631   0.77618   0.73007   1.000
    N3      N    0.77485   0.86764   0.23048   1.000
    N4      N    0.30806   0.31773   0.48547   1.000
    N5      N    0.68264   0.68875   0.01518   1.000
    N6      N    0.22512   0.13240   0.76953   1.000
    N7      N    0.69196   0.68226   0.51454   1.000
    Zr8     Zr   0.32165   0.81137   0.98058   1.000
    O9      O    0.45405   0.80344   0.92634   1.000
    O10     O    0.32209   0.64885   0.98522   1.000
    O11     O    0.18882   0.82284   0.03473   1.000
    O12     O    0.41897   0.81946   0.04473   1.000
    O13     O    0.31791   0.97408   0.97901   1.000
    O14     O    0.22741   0.80348   0.91496   1.000
    Zr15    Zr   0.80818   0.32258   0.48144   1.000
    O16     O    0.80032   0.22814   0.41610   1.000
    O17     O    0.64562   0.32272   0.48622   1.000
    O18     O    0.81990   0.18966   0.53516   1.000
    O19     O    0.80006   0.45501   0.42705   1.000
    O20     O    0.81699   0.41963   0.54549   1.000
    O21     O    0.97088   0.31892   0.47957   1.000
    Zr22    Zr   0.67831   0.18861   0.01943   1.000
    O23     O    0.81114   0.17714   0.96527   1.000
    O24     O    0.58099   0.18054   0.95529   1.000
    O25     O    0.77255   0.19649   0.08504   1.000
    O26     O    0.54590   0.19654   0.07368   1.000
    O27     O    0.67789   0.35114   0.01479   1.000
    O28     O    0.68204   0.02591   0.02100   1.000
    Zr29    Zr   0.19184   0.67743   0.51857   1.000
    O30     O    0.19968   0.77188   0.58391   1.000
    O31     O    0.18301   0.58037   0.45449   1.000
    O32     O    0.18011   0.81035   0.46485   1.000
    O33     O    0.19994   0.54499   0.57293   1.000
    O34     O    0.35440   0.67729   0.51377   1.000
    O35     O    0.02914   0.68109   0.52043   1.000
loop_
    _geom_bond_atom_site_label_1
    _geom_bond_atom_site_label_2
    _geom_bond_distance
    _geom_bond_site_symmetry_2
    _ccdc_geom_bond_type
    Zr8    O9        2.46970      .   S
    N2     O9        8.09153      .   S
    Zr8    O10       2.62100      .   S
    N1     O10       5.47353      .   S
    Zr8    O11       2.47620  1_556   S
    N3     O11       8.11966  1_655   S
    Zr8    O12       2.46153  1_556   S
    N3     O12       8.10472      .   S
    Zr8    O13       2.62478      .   S
    N1     O13       5.47351  1_545   S
    Zr8    O14       2.45633      .   S
    N2     O14       8.08606  1_655   S
    Zr15   O16       2.45310      .   S
    N3     O16       8.08898  1_565   S
    Zr15   O17       2.61930      .   S
    N4     O17       5.46911      .   S
    Zr15   O18       2.47408      .   S
    N2     O18       8.10985  1_565   S
    Zr15   O19       2.47465      .   S
    N3     O19       8.10647      .   S
    Zr15   O20       2.45908      .   S
    N2     O20       8.09793      .   S
    Zr15   O21       2.62174      .   S
    N4     O21       5.46811  1_455   S
    Zr22   O23       2.47633  1_554   S
    N6     O23       8.11948  1_455   S
    Zr22   O24       2.46147  1_554   S
    N6     O24       8.10460      .   S
    Zr22   O25       2.45617      .   S
    N0     O25       8.08612  1_455   S
    Zr22   O26       2.47004      .   S
    N0     O26       8.09160      .   S
    Zr22   O27       2.62105      .   S
    N5     O27       5.47356      .   S
    Zr22   O28       2.62473      .   S
    N5     O28       5.47348  1_565   S
    Zr29   O30       2.45326      .   S
    N6     O30       8.08910  1_545   S
    Zr29   O31       2.45966      .   S
    N0     O31       8.09762      .   S
    Zr29   O32       2.47396      .   S
    N0     O32       8.10961  1_545   S
    Zr29   O33       2.47434      .   S
    N6     O33       8.10654      .   S
    Zr29   O34       2.61930      .   S
    N7     O34       5.46914      .   S
    Zr29   O35       2.62172      .   S
    N7     O35       5.46813  1_655   S
