# CIF file generated by openbabel 2.4.90, see http://openbabel.sf.net
data_I
_chemical_name_common ''
_cell_length_a 16.171
_cell_length_b 16.186
_cell_length_c 26.823
_cell_angle_alpha 84.506
_cell_angle_beta 84.475
_cell_angle_gamma 84.441
_space_group_name_H-M_alt 'P 1'
_space_group_name_Hall 'P 1'
loop_
    _symmetry_equiv_pos_as_xyz
    x,y,z
loop_
    _atom_site_label
    _atom_site_type_symbol
    _atom_site_fract_x
    _atom_site_fract_y
    _atom_site_fract_z
    _atom_site_occupancy
    Zr0     Zr   0.72217   0.32703   0.49341   1.000
    Zr1     Zr   0.89549   0.31560   0.47090   1.000
    Zr2     Zr   0.32666   0.72555   0.99186   1.000
    Zr3     Zr   0.31368   0.89881   0.97064   1.000
    Zr4     Zr   0.67335   0.27443   0.00816   1.000
    Zr5     Zr   0.68620   0.10118   0.02937   1.000
    Zr6     Zr   0.27785   0.67297   0.50660   1.000
    Zr7     Zr   0.10453   0.68440   0.52911   1.000
    Zr8     Zr   0.79902   0.46436   0.42339   1.000
    Zr9     Zr   0.41588   0.81044   0.05643   1.000
    Zr10    Zr   0.80506   0.23132   0.40561   1.000
    Zr11    Zr   0.17832   0.82291   0.03790   1.000
    Zr12    Zr   0.46296   0.80329   0.92245   1.000
    Zr13    Zr   0.80881   0.41608   0.55736   1.000
    Zr14    Zr   0.23036   0.80868   0.90443   1.000
    Zr15    Zr   0.81993   0.17914   0.53822   1.000
    Zr16    Zr   0.53700   0.19667   0.07760   1.000
    Zr17    Zr   0.19120   0.58391   0.44265   1.000
    Zr18    Zr   0.76961   0.19128   0.09550   1.000
    Zr19    Zr   0.18010   0.82085   0.46179   1.000
    Zr20    Zr   0.20100   0.53565   0.57661   1.000
    Zr21    Zr   0.58407   0.18957   0.94360   1.000
    Zr22    Zr   0.19495   0.76872   0.59439   1.000
    Zr23    Zr   0.82164   0.17706   0.96208   1.000
    Zr24    Zr   0.72956   0.44163   0.44376   1.000
    Zr25    Zr   0.87073   0.42536   0.42896   1.000
    Zr26    Zr   0.39897   0.73747   0.04844   1.000
    Zr27    Zr   0.38509   0.87832   0.03481   1.000
    Zr28    Zr   0.87947   0.24712   0.41009   1.000
    Zr29    Zr   0.73977   0.26198   0.43066   1.000
    Zr30    Zr   0.21537   0.74989   0.03737   1.000
    Zr31    Zr   0.20496   0.88883   0.01444   1.000
    Zr32    Zr   0.44073   0.73386   0.94312   1.000
    Zr33    Zr   0.42333   0.87475   0.92758   1.000
    Zr34    Zr   0.73570   0.39905   0.54958   1.000
    Zr35    Zr   0.87667   0.38547   0.53558   1.000
    Zr36    Zr   0.24600   0.88300   0.90910   1.000
    Zr37    Zr   0.26077   0.74338   0.92953   1.000
    Zr38    Zr   0.74649   0.21548   0.53774   1.000
    Zr39    Zr   0.88562   0.20654   0.51488   1.000
    Zr40    Zr   0.55926   0.26610   0.05695   1.000
    Zr41    Zr   0.57661   0.12521   0.07240   1.000
    Zr42    Zr   0.26431   0.60093   0.45043   1.000
    Zr43    Zr   0.12335   0.61453   0.46443   1.000
    Zr44    Zr   0.75396   0.11697   0.09090   1.000
    Zr45    Zr   0.73924   0.25659   0.07047   1.000
    Zr46    Zr   0.25353   0.78450   0.46225   1.000
    Zr47    Zr   0.11441   0.79347   0.48513   1.000
    Zr48    Zr   0.27046   0.55839   0.55626   1.000
    Zr49    Zr   0.12929   0.57466   0.57104   1.000
    Zr50    Zr   0.60098   0.26253   0.95161   1.000
    Zr51    Zr   0.61488   0.12167   0.96520   1.000
    Zr52    Zr   0.12054   0.75288   0.58993   1.000
    Zr53    Zr   0.26023   0.73813   0.56932   1.000
    Zr54    Zr   0.78461   0.25010   0.96264   1.000
    Zr55    Zr   0.79500   0.11115   0.98558   1.000
    O56     O    0.61630   0.27027   0.03255   1.000
    O57     O    0.70629   0.26551   0.03931   1.000
    O58     O    0.63716   0.26848   0.97988   1.000
    O59     O    0.72898   0.26227   0.98540   1.000
    O60     O    0.19164   0.85587   0.02617   1.000
    O61     O    0.25932   0.89382   0.99254   1.000
    O62     O    0.63140   0.11320   0.05088   1.000
    O63     O    0.72008   0.10907   0.06013   1.000
    O64     O    0.65054   0.11143   0.99728   1.000
    O65     O    0.74060   0.10617   0.00747   1.000
    O66     O    0.40048   0.84438   0.04562   1.000
    O67     O    0.34938   0.88857   0.00272   1.000
    O68     O    0.19685   0.78640   0.03764   1.000
    O69     O    0.27102   0.73772   0.01461   1.000
    O70     O    0.40742   0.77395   0.05243   1.000
    O71     O    0.36282   0.73151   0.02015   1.000
    O72     O    0.54813   0.23139   0.06728   1.000
    O73     O    0.75442   0.22393   0.08298   1.000
    O74     O    0.55680   0.16094   0.07500   1.000
    O75     O    0.76178   0.15412   0.09320   1.000
    O76     O    0.84226   0.23922   0.40785   1.000
    O77     O    0.77241   0.24665   0.41813   1.000
    O78     O    0.88748   0.28136   0.44049   1.000
    O79     O    0.83487   0.44486   0.42618   1.000
    O80     O    0.76429   0.45299   0.43357   1.000
    O81     O    0.88311   0.37048   0.44993   1.000
    O82     O    0.73097   0.29450   0.46203   1.000
    O83     O    0.22776   0.59242   0.44654   1.000
    O84     O    0.15728   0.59922   0.45354   1.000
    O85     O    0.72587   0.38433   0.46858   1.000
    O86     O    0.27108   0.63695   0.47851   1.000
    O87     O    0.21681   0.80268   0.46202   1.000
    O88     O    0.14725   0.80716   0.47346   1.000
    O89     O    0.26569   0.72874   0.48442   1.000
    O90     O    0.11394   0.64947   0.49677   1.000
    O91     O    0.89055   0.26107   0.49289   1.000
    O92     O    0.88608   0.35053   0.50324   1.000
    O93     O    0.10947   0.73893   0.50712   1.000
    O94     O    0.73433   0.27126   0.51558   1.000
    O95     O    0.72893   0.36304   0.52149   1.000
    O96     O    0.27416   0.61568   0.53143   1.000
    O97     O    0.26904   0.70555   0.53796   1.000
    O98     O    0.85277   0.19284   0.52655   1.000
    O99     O    0.11691   0.62953   0.55007   1.000
    O100    O    0.11253   0.71864   0.55952   1.000
    O101    O    0.84274   0.40077   0.54647   1.000
    O102    O    0.78321   0.19731   0.53798   1.000
    O103    O    0.77225   0.40757   0.55347   1.000
    O104    O    0.23573   0.54702   0.56643   1.000
    O105    O    0.22759   0.75342   0.58186   1.000
    O106    O    0.16514   0.55516   0.57382   1.000
    O107    O    0.15774   0.76080   0.59216   1.000
    O108    O    0.23818   0.84584   0.90676   1.000
    O109    O    0.24557   0.77603   0.91698   1.000
    O110    O    0.27984   0.89091   0.93987   1.000
    O111    O    0.44315   0.83902   0.92502   1.000
    O112    O    0.45185   0.76858   0.93278   1.000
    O113    O    0.36851   0.88678   0.94911   1.000
    O114    O    0.29372   0.73446   0.96069   1.000
    O115    O    0.38370   0.72971   0.96749   1.000
    O116    O    0.59253   0.22605   0.94760   1.000
    O117    O    0.59947   0.15562   0.95440   1.000
    O118    O    0.80313   0.21358   0.96236   1.000
    O119    O    0.80832   0.14411   0.97383   1.000
    O120    O    0.80883   0.32132   0.48215   1.000
    O121    O    0.32017   0.81218   0.98125   1.000
    O122    O    0.67977   0.18781   0.01876   1.000
    O123    O    0.19119   0.67869   0.51786   1.000
    N124    N    0.13363   0.22381   0.26995   1.000
    O125    O    0.41349   0.20447   0.12793   1.000
    O126    O    0.86679   0.20437   0.15065   1.000
    O127    O    0.17419   0.48331   0.39042   1.000
    O128    O    0.16839   0.94326   0.41114   1.000
    N129    N    0.31734   0.31124   0.98483   1.000
    O130    O    0.31417   0.13678   0.97745   1.000
    O131    O    0.32252   0.48632   0.98986   1.000
    N132    N    0.86631   0.77618   0.73007   1.000
    O133    O    0.83163   0.05673   0.58887   1.000
    O134    O    0.82581   0.51668   0.60955   1.000
    O135    O    0.13317   0.79559   0.84935   1.000
    O136    O    0.58644   0.79551   0.87211   1.000
    N137    N    0.77485   0.86764   0.23048   1.000
    O138    O    0.05599   0.83431   0.08888   1.000
    O139    O    0.51630   0.82756   0.10887   1.000
    O140    O    0.79246   0.13369   0.35077   1.000
    O141    O    0.79195   0.58744   0.37266   1.000
    N142    N    0.30806   0.31773   0.48547   1.000
    O143    O    0.48306   0.32285   0.49101   1.000
    O144    O    0.13358   0.31525   0.47771   1.000
    N145    N    0.68264   0.68875   0.01518   1.000
    O146    O    0.68577   0.86321   0.02256   1.000
    O147    O    0.67747   0.51366   0.01016   1.000
    N148    N    0.22512   0.13240   0.76953   1.000
    O149    O    0.20804   0.41256   0.62730   1.000
    O150    O    0.20753   0.86633   0.64925   1.000
    O151    O    0.48366   0.17247   0.89114   1.000
    O152    O    0.94397   0.16567   0.91111   1.000
    N153    N    0.69196   0.68226   0.51454   1.000
    O154    O    0.86644   0.68475   0.52230   1.000
    O155    O    0.51696   0.67715   0.50897   1.000
loop_
    _geom_bond_atom_site_label_1
    _geom_bond_atom_site_label_2
    _geom_bond_distance
    _geom_bond_site_symmetry_2
    _ccdc_geom_bond_type
    Zr4    O56       1.08214      .   S
    Zr40   O56       1.08214      .   S
    Zr4    O57       1.02506      .   S
    Zr45   O57       1.02506      .   S
    Zr4    O58       1.01842  1_554   S
    Zr50   O58       1.01842      .   S
    Zr4    O59       1.05060  1_554   S
    Zr54   O59       1.05060      .   S
    Zr31   O60       0.63803      .   S
    Zr11   O60       0.63803      .   S
    Zr31   O61       1.01466  1_554   S
    Zr3    O61       1.01466      .   S
    Zr5    O62       1.02262      .   S
    Zr41   O62       1.02262      .   S
    Zr5    O63       1.05746      .   S
    Zr44   O63       1.05746      .   S
    Zr5    O64       1.07261  1_554   S
    Zr51   O64       1.07261      .   S
    Zr5    O65       1.01510      .   S
    Zr55   O65       1.01510  1_556   S
    Zr27   O66       0.63622      .   S
    Zr9    O66       0.63622      .   S
    Zr27   O67       1.07298      .   S
    Zr3    O67       1.07298  1_556   S
    Zr30   O68       0.63654      .   S
    Zr11   O68       0.63654      .   S
    Zr30   O69       1.05069      .   S
    Zr2    O69       1.05069  1_556   S
    Zr26   O70       0.63990      .   S
    Zr9    O70       0.63990      .   S
    Zr26   O71       1.01847      .   S
    Zr2    O71       1.01847  1_556   S
    Zr40   O72       0.63637      .   S
    Zr16   O72       0.63637      .   S
    Zr45   O73       0.63964      .   S
    Zr18   O73       0.63964      .   S
    Zr41   O74       0.63987      .   S
    Zr16   O74       0.63987      .   S
    Zr44   O75       0.63628      .   S
    Zr18   O75       0.63628      .   S
    Zr10   O76       0.63663      .   S
    Zr28   O76       0.63663      .   S
    Zr10   O77       0.63991      .   S
    Zr29   O77       0.63991      .   S
    Zr28   O78       1.05353      .   S
    Zr1    O78       1.05353      .   S
    Zr8    O79       0.64007      .   S
    Zr25   O79       0.64007      .   S
    Zr8    O80       0.63618      .   S
    Zr24   O80       0.63618      .   S
    Zr25   O81       1.01837      .   S
    Zr1    O81       1.01837      .   S
    Zr29   O82       1.02613      .   S
    Zr0    O82       1.02613      .   S
    Zr17   O83       0.64007      .   S
    Zr42   O83       0.64007      .   S
    Zr17   O84       0.63592      .   S
    Zr43   O84       0.63592      .   S
    Zr24   O85       1.09175      .   S
    Zr0    O85       1.09175      .   S
    Zr42   O86       1.01577      .   S
    Zr6    O86       1.01577      .   S
    Zr19   O87       0.63689      .   S
    Zr46   O87       0.63689      .   S
    Zr19   O88       0.63771      .   S
    Zr47   O88       0.63771      .   S
    Zr46   O89       1.04524      .   S
    Zr6    O89       1.04524      .   S
    Zr43   O90       1.07108      .   S
    Zr7    O90       1.07108      .   S
    Zr1    O91       1.01895      .   S
    Zr39   O91       1.01895      .   S
    Zr1    O92       1.07105      .   S
    Zr35   O92       1.07105      .   S
    Zr47   O93       1.01897      .   S
    Zr7    O93       1.01897      .   S
    Zr0    O94       1.04523      .   S
    Zr38   O94       1.04523      .   S
    Zr0    O95       1.01565      .   S
    Zr34   O95       1.01565      .   S
    Zr6    O96       1.09171      .   S
    Zr48   O96       1.09171      .   S
    Zr6    O97       1.02626      .   S
    Zr53   O97       1.02626      .   S
    Zr39   O98       0.63777      .   S
    Zr15   O98       0.63777      .   S
    Zr7    O99       1.01821      .   S
    Zr49   O99       1.01821      .   S
    Zr7    O100      1.05357      .   S
    Zr52   O100      1.05357      .   S
    Zr35   O101      0.63591      .   S
    Zr13   O101      0.63591      .   S
    Zr38   O102      0.63689      .   S
    Zr15   O102      0.63689      .   S
    Zr34   O103      0.64008      .   S
    Zr13   O103      0.64008      .   S
    Zr48   O104      0.63615      .   S
    Zr20   O104      0.63615      .   S
    Zr53   O105      0.63987      .   S
    Zr22   O105      0.63987      .   S
    Zr49   O106      0.64007      .   S
    Zr20   O106      0.64007      .   S
    Zr52   O107      0.63661      .   S
    Zr22   O107      0.63661      .   S
    Zr14   O108      0.63650      .   S
    Zr36   O108      0.63650      .   S
    Zr14   O109      0.64011      .   S
    Zr37   O109      0.64011      .   S
    Zr36   O110      1.05727      .   S
    Zr3    O110      1.05727      .   S
    Zr12   O111      0.63972      .   S
    Zr33   O111      0.63972      .   S
    Zr12   O112      0.63642      .   S
    Zr32   O112      0.63642      .   S
    Zr33   O113      1.02321      .   S
    Zr3    O113      1.02321      .   S
    Zr37   O114      1.02531      .   S
    Zr2    O114      1.02531      .   S
    Zr32   O115      1.08165      .   S
    Zr2    O115      1.08165      .   S
    Zr21   O116      0.63991      .   S
    Zr50   O116      0.63991      .   S
    Zr21   O117      0.63622      .   S
    Zr51   O117      0.63622      .   S
    Zr23   O118      0.63658      .   S
    Zr54   O118      0.63658      .   S
    Zr23   O119      0.63817      .   S
    Zr55   O119      0.63817      .   S
    Zr0    O120      1.40085      .   S
    Zr1    O120      1.40085      .   S
    Zr2    O121      1.39968      .   S
    Zr3    O121      1.39968      .   S
    Zr4    O122      1.39960      .   S
    Zr5    O122      1.39960      .   S
    Zr6    O123      1.40085      .   S
    Zr7    O123      1.40085      .   S
    N124   O125      5.63257      .   S
    Zr16   O125      2.30041      .   S
    N124   O126      5.66330  1_455   S
    Zr18   O126      2.29675      .   S
    N124   O127      5.66163      .   S
    Zr17   O127      2.29956      .   S
    N124   O128      5.64803  1_545   S
    Zr19   O128      2.29545      .   S
    N129   O130      2.85522      .   S
    Zr3    O130      3.87430  1_565   S
    N129   O131      2.85967      .   S
    Zr2    O131      3.88479      .   S
    N132   O133      5.64814  1_565   S
    Zr15   O133      2.29542      .   S
    N132   O134      5.66243      .   S
    Zr13   O134      2.29864      .   S
    N132   O135      5.66312  1_655   S
    Zr14   O135      2.29558      .   S
    N132   O136      5.63285      .   S
    Zr12   O136      2.30032      .   S
    N137   O138      5.65493  1_655   S
    Zr11   O138      2.29648      .   S
    N137   O139      5.66558      .   S
    Zr9    O139      2.30091      .   S
    N137   O140      5.66670  1_565   S
    Zr10   O140      2.29512      .   S
    N137   O141      5.64239      .   S
    Zr8    O141      2.30233      .   S
    N142   O143      2.85769      .   S
    Zr0    O143      3.88060      .   S
    N142   O144      2.85343      .   S
    Zr1    O144      3.87146  1_655   S
    N145   O146      2.85523      .   S
    Zr5    O146      3.87428  1_545   S
    N145   O147      2.85963      .   S
    Zr4    O147      3.88472      .   S
    N148   O149      5.64287      .   S
    Zr20   O149      2.30180      .   S
    N148   O150      5.66669  1_545   S
    Zr22   O150      2.29524      .   S
    N148   O151      5.66552      .   S
    Zr21   O151      2.30104      .   S
    N148   O152      5.65458  1_455   S
    Zr23   O152      2.29627      .   S
    N153   O154      2.85346      .   S
    Zr7    O154      3.87149  1_455   S
    N153   O155      2.85777      .   S
    Zr6    O155      3.88048      .   S
