# CIF file generated by openbabel 2.4.90, see http://openbabel.sf.net
data_I
_chemical_name_common ''
_cell_length_a 15.131
_cell_length_b 14.406
_cell_length_c 21.129
_cell_angle_alpha 90.026
_cell_angle_beta 90.03
_cell_angle_gamma 92.656
_space_group_name_H-M_alt 'P 1'
_space_group_name_Hall 'P 1'
loop_
    _symmetry_equiv_pos_as_xyz
    x,y,z
loop_
    _atom_site_label
    _atom_site_type_symbol
    _atom_site_fract_x
    _atom_site_fract_y
    _atom_site_fract_z
    _atom_site_occupancy
    N0      N    0.25308   0.72322   0.19153   1.000
    N1      N    0.00497   0.59570   0.43691   1.000
    N2      N    0.49505   0.40427   0.56308   1.000
    N3      N    0.25339   0.22370   0.30841   1.000
    N4      N    0.99505   0.40427   0.56308   1.000
    N5      N    0.74693   0.27676   0.80845   1.000
    N6      N    0.24692   0.27675   0.80845   1.000
    N7      N    0.50497   0.59571   0.43691   1.000
    N8      N    0.74662   0.77628   0.69157   1.000
    N9      N    0.00518   0.09582   0.06307   1.000
    N10     N    0.99483   0.90414   0.93692   1.000
    N11     N    0.49483   0.90415   0.93692   1.000
    N12     N    0.50518   0.09584   0.06307   1.000
    N13     N    0.75309   0.72321   0.19153   1.000
    N14     N    0.75340   0.22368   0.30839   1.000
    N15     N    0.24661   0.77629   0.69157   1.000
    Zr16    Zr   0.75001   0.99998   1.00000   1.000
    O17     O    0.82963   0.95110   0.96823   1.000
    O18     O    0.66506   0.95128   0.96819   1.000
    O19     O    0.74967   0.11226   0.92747   1.000
    O20     O    0.75253   0.10642   0.13105   1.000
    O21     O    0.83495   0.04869   0.03180   1.000
    O22     O    0.67038   0.04888   0.03176   1.000
    O23     O    0.75035   0.88771   0.07252   1.000
    O24     O    0.74749   0.89354   0.86893   1.000
    Zr25    Zr   0.25000   0.99999   0.99999   1.000
    O26     O    0.25252   0.10644   0.13104   1.000
    O27     O    0.32963   0.95110   0.96822   1.000
    O28     O    0.16506   0.95127   0.96819   1.000
    O29     O    0.24966   0.11226   0.92747   1.000
    O30     O    0.25034   0.88772   0.07250   1.000
    O31     O    0.17037   0.04887   0.03176   1.000
    O32     O    0.33495   0.04870   0.03179   1.000
    O33     O    0.24748   0.89355   0.86893   1.000
    Zr34    Zr   0.75001   0.49998   0.49991   1.000
    O35     O    0.75014   0.38789   0.42741   1.000
    O36     O    0.75245   0.60623   0.36887   1.000
    O37     O    0.74757   0.39374   0.63104   1.000
    O38     O    0.74988   0.61207   0.57249   1.000
    O39     O    0.67028   0.54883   0.46819   1.000
    O40     O    0.83485   0.54864   0.46811   1.000
    O41     O    0.66517   0.45133   0.53179   1.000
    O42     O    0.82974   0.45114   0.53171   1.000
    Zr43    Zr   0.25000   0.49999   0.49994   1.000
    O44     O    0.24756   0.39374   0.63105   1.000
    O45     O    0.33484   0.54864   0.46813   1.000
    O46     O    0.17027   0.54883   0.46821   1.000
    O47     O    0.25245   0.60624   0.36888   1.000
    O48     O    0.24987   0.61208   0.57250   1.000
    O49     O    0.32974   0.45114   0.53172   1.000
    O50     O    0.16516   0.45134   0.53180   1.000
    O51     O    0.25013   0.38791   0.42743   1.000
loop_
    _geom_bond_atom_site_label_1
    _geom_bond_atom_site_label_2
    _geom_bond_distance
    _geom_bond_site_symmetry_2
    _ccdc_geom_bond_type
    Zr16   O17       1.57391      .   S
    N10    O17       2.70203      .   S
    Zr16   O18       1.58465      .   S
    N11    O18       2.71438      .   S
    Zr16   O19       2.22868  1_565   S
    N5     O19       3.45780      .   S
    Zr16   O20       3.16404  1_566   S
    N14    O20       4.10916      .   S
    Zr16   O21       1.58463  1_566   S
    N9     O21       2.71429  1_455   S
    Zr16   O22       1.57395  1_566   S
    N12    O22       2.70213      .   S
    Zr16   O23       2.22865  1_556   S
    N13    O23       3.45776      .   S
    Zr16   O24       3.16420      .   S
    N8     O24       4.10961      .   S
    Zr25   O26       3.16408  1_566   S
    N3     O26       4.10987      .   S
    Zr25   O27       1.57392      .   S
    N11    O27       2.70213      .   S
    Zr25   O28       1.58464      .   S
    N10    O28       2.71430  1_655   S
    Zr25   O29       2.22863  1_565   S
    N6     O29       3.45773      .   S
    Zr25   O30       2.22854  1_556   S
    N0     O30       3.45788      .   S
    Zr25   O31       1.57394  1_566   S
    N9     O31       2.70205      .   S
    Zr25   O32       1.58470  1_566   S
    N12    O32       2.71441      .   S
    Zr25   O33       3.16414      .   S
    N15    O33       4.10953      .   S
    Zr34   O35       2.22537      .   S
    N14    O35       3.45385      .   S
    Zr34   O36       3.16374      .   S
    N13    O36       4.10897      .   S
    Zr34   O37       3.16521      .   S
    N5     O37       4.11047      .   S
    Zr34   O38       2.22640      .   S
    N8     O38       3.45470      .   S
    Zr34   O39       1.57425      .   S
    N7     O39       2.70271      .   S
    Zr34   O40       1.58385      .   S
    N1     O40       2.71304  1_455   S
    Zr34   O41       1.58453      .   S
    N2     O41       2.71359      .   S
    Zr34   O42       1.57485      .   S
    N4     O42       2.70306      .   S
    Zr43   O44       3.16501      .   S
    N6     O44       4.11021      .   S
    Zr43   O45       1.58392      .   S
    N7     O45       2.71324      .   S
    Zr43   O46       1.57423      .   S
    N1     O46       2.70269      .   S
    Zr43   O47       3.16397      .   S
    N0     O47       4.10925      .   S
    Zr43   O48       2.22624      .   S
    N15    O48       3.45454      .   S
    Zr43   O49       1.57478      .   S
    N2     O49       2.70313      .   S
    Zr43   O50       1.58437      .   S
    N4     O50       2.71345  1_655   S
    Zr43   O51       2.22536      .   S
    N3     O51       3.45362      .   S
