# CIF file generated by openbabel 2.4.90, see http://openbabel.sf.net
data_I
_chemical_name_common ''
_cell_length_a 15.131
_cell_length_b 14.406
_cell_length_c 21.129
_cell_angle_alpha 90.026
_cell_angle_beta 90.03
_cell_angle_gamma 92.656
_space_group_name_H-M_alt 'P 1'
_space_group_name_Hall 'P 1'
loop_
    _symmetry_equiv_pos_as_xyz
    x,y,z
loop_
    _atom_site_label
    _atom_site_type_symbol
    _atom_site_fract_x
    _atom_site_fract_y
    _atom_site_fract_z
    _atom_site_occupancy
    Zr0     Zr   0.24443   0.39661   0.56570   1.000
    Zr1     Zr   0.74444   0.39660   0.56572   1.000
    Zr2     Zr   0.25577   0.10342   0.06569   1.000
    Zr3     Zr   0.75578   0.10342   0.06569   1.000
    Zr4     Zr   0.25557   0.60337   0.43426   1.000
    Zr5     Zr   0.75558   0.60337   0.43420   1.000
    Zr6     Zr   0.24423   0.89655   0.93430   1.000
    Zr7     Zr   0.74424   0.89655   0.93430   1.000
    Zr8     Zr   0.24279   0.31916   0.68331   1.000
    Zr9     Zr   0.74279   0.31916   0.68331   1.000
    Zr10    Zr   0.25313   0.15141   0.93387   1.000
    Zr11    Zr   0.75315   0.15141   0.93388   1.000
    Zr12    Zr   0.25737   0.18103   0.18320   1.000
    Zr13    Zr   0.75738   0.18101   0.18329   1.000
    Zr14    Zr   0.24557   0.34876   0.43388   1.000
    Zr15    Zr   0.74556   0.34874   0.43388   1.000
    Zr16    Zr   0.25722   0.68082   0.31668   1.000
    Zr17    Zr   0.75723   0.68081   0.31668   1.000
    Zr18    Zr   0.24687   0.84857   0.06611   1.000
    Zr19    Zr   0.74687   0.84856   0.06611   1.000
    Zr20    Zr   0.24263   0.81895   0.81670   1.000
    Zr21    Zr   0.74264   0.81895   0.81670   1.000
    Zr22    Zr   0.25444   0.65123   0.56611   1.000
    Zr23    Zr   0.75445   0.65122   0.56611   1.000
    Zr24    Zr   0.25664   0.40717   0.67772   1.000
    Zr25    Zr   0.75663   0.40717   0.67772   1.000
    Zr26    Zr   0.22941   0.26558   0.63629   1.000
    Zr27    Zr   0.72942   0.26558   0.63600   1.000
    Zr28    Zr   0.24865   0.06331   0.94129   1.000
    Zr29    Zr   0.74868   0.06332   0.94129   1.000
    Zr30    Zr   0.25935   0.20700   0.98090   1.000
    Zr31    Zr   0.75936   0.20701   0.98090   1.000
    Zr32    Zr   0.24390   0.09296   0.17774   1.000
    Zr33    Zr   0.74390   0.09294   0.17774   1.000
    Zr34    Zr   0.27053   0.23453   0.13625   1.000
    Zr35    Zr   0.77054   0.23452   0.13625   1.000
    Zr36    Zr   0.24806   0.43683   0.44137   1.000
    Zr37    Zr   0.74807   0.43681   0.44137   1.000
    Zr38    Zr   0.24093   0.29307   0.48080   1.000
    Zr39    Zr   0.74094   0.29306   0.48088   1.000
    Zr40    Zr   0.24336   0.59281   0.32226   1.000
    Zr41    Zr   0.74339   0.59280   0.32220   1.000
    Zr42    Zr   0.27059   0.73440   0.36300   1.000
    Zr43    Zr   0.77061   0.73439   0.36300   1.000
    Zr44    Zr   0.25136   0.93666   0.05870   1.000
    Zr45    Zr   0.75134   0.93666   0.05870   1.000
    Zr46    Zr   0.24066   0.79297   0.01909   1.000
    Zr47    Zr   0.74066   0.79297   0.01909   1.000
    Zr48    Zr   0.25611   0.90703   0.82225   1.000
    Zr49    Zr   0.75611   0.90702   0.82225   1.000
    Zr50    Zr   0.22947   0.76545   0.86374   1.000
    Zr51    Zr   0.72948   0.76545   0.86374   1.000
    Zr52    Zr   0.25194   0.56315   0.55862   1.000
    Zr53    Zr   0.75196   0.56315   0.55862   1.000
    Zr54    Zr   0.25907   0.70691   0.51911   1.000
    Zr55    Zr   0.75908   0.70691   0.51911   1.000
    O56     O    0.24376   0.82077   0.04260   1.000
    O57     O    0.24244   0.84476   0.97670   1.000
    O58     O    0.74376   0.82076   0.04260   1.000
    O59     O    0.74245   0.84476   0.97670   1.000
    O60     O    0.75356   0.02004   0.06220   1.000
    O61     O    0.74910   0.89261   0.06241   1.000
    O62     O    0.25356   0.02004   0.06220   1.000
    O63     O    0.24912   0.89262   0.06241   1.000
    O64     O    0.76316   0.16897   0.10097   1.000
    O65     O    0.74984   0.09818   0.12172   1.000
    O66     O    0.75757   0.15521   0.02330   1.000
    O67     O    0.26315   0.16898   0.10097   1.000
    O68     O    0.24983   0.09819   0.12172   1.000
    O69     O    0.25756   0.15521   0.02330   1.000
    O70     O    0.26395   0.20778   0.15973   1.000
    O71     O    0.76396   0.20777   0.15977   1.000
    O72     O    0.25063   0.13699   0.18047   1.000
    O73     O    0.75064   0.13698   0.18052   1.000
    O74     O    0.75031   0.63681   0.31944   1.000
    O75     O    0.76392   0.70760   0.33984   1.000
    O76     O    0.25029   0.63681   0.31947   1.000
    O77     O    0.26391   0.70761   0.33984   1.000
    O78     O    0.74949   0.59808   0.37820   1.000
    O79     O    0.24947   0.59809   0.37826   1.000
    O80     O    0.76309   0.66888   0.39860   1.000
    O81     O    0.26308   0.66889   0.39863   1.000
    O82     O    0.24681   0.39279   0.43762   1.000
    O83     O    0.24325   0.32091   0.45734   1.000
    O84     O    0.74682   0.39278   0.43762   1.000
    O85     O    0.74325   0.32090   0.45738   1.000
    O86     O    0.75182   0.52009   0.43778   1.000
    O87     O    0.75733   0.65514   0.47665   1.000
    O88     O    0.25181   0.52010   0.43782   1.000
    O89     O    0.25732   0.65514   0.47668   1.000
    O90     O    0.24268   0.34484   0.52325   1.000
    O91     O    0.74269   0.34483   0.52330   1.000
    O92     O    0.75676   0.67907   0.54261   1.000
    O93     O    0.25676   0.67907   0.54261   1.000
    O94     O    0.24819   0.47988   0.56216   1.000
    O95     O    0.25319   0.60719   0.56237   1.000
    O96     O    0.74820   0.47988   0.56217   1.000
    O97     O    0.75320   0.60719   0.56237   1.000
    O98     O    0.23692   0.33109   0.60100   1.000
    O99     O    0.25054   0.40189   0.62171   1.000
    O100    O    0.73693   0.33109   0.60086   1.000
    O101    O    0.75054   0.40189   0.62172   1.000
    O102    O    0.73610   0.29237   0.65965   1.000
    O103    O    0.23610   0.29237   0.65980   1.000
    O104    O    0.24972   0.36316   0.68051   1.000
    O105    O    0.74971   0.36316   0.68051   1.000
    O106    O    0.74938   0.86299   0.81947   1.000
    O107    O    0.73606   0.79220   0.84022   1.000
    O108    O    0.24937   0.86299   0.81947   1.000
    O109    O    0.23605   0.79220   0.84022   1.000
    O110    O    0.25017   0.90179   0.87828   1.000
    O111    O    0.75018   0.90179   0.87828   1.000
    O112    O    0.73686   0.83100   0.89902   1.000
    O113    O    0.23685   0.83100   0.89902   1.000
    O114    O    0.25089   0.10736   0.93758   1.000
    O115    O    0.25624   0.17920   0.95739   1.000
    O116    O    0.75092   0.10736   0.93759   1.000
    O117    O    0.75626   0.17921   0.95739   1.000
    O118    O    0.74646   0.97994   0.93780   1.000
    O119    O    0.24644   0.97993   0.93780   1.000
    N120    N    0.25308   0.72322   0.19153   1.000
    O121    O    0.25069   0.77545   0.14502   1.000
    O122    O    0.25489   0.71249   0.23783   1.000
    N123    N    0.00497   0.59570   0.43691   1.000
    O124    O    0.91969   0.59729   0.43630   1.000
    O125    O    0.09054   0.59768   0.43648   1.000
    N126    N    0.49505   0.40427   0.56308   1.000
    O127    O    0.40947   0.40230   0.56350   1.000
    O128    O    0.58033   0.40268   0.56367   1.000
    N129    N    0.25339   0.22370   0.30841   1.000
    O130    O    0.25026   0.27582   0.35492   1.000
    O131    O    0.25504   0.21288   0.26210   1.000
    N132    N    0.99505   0.40427   0.56308   1.000
    O133    O    0.90948   0.40230   0.56351   1.000
    O134    O    0.08033   0.40269   0.56366   1.000
    N135    N    0.74693   0.27676   0.80845   1.000
    O136    O    0.74512   0.28749   0.76216   1.000
    O137    O    0.74934   0.22453   0.85495   1.000
    N138    N    0.24692   0.27675   0.80845   1.000
    O139    O    0.24512   0.28748   0.76216   1.000
    O140    O    0.24932   0.22452   0.85494   1.000
    N141    N    0.50497   0.59571   0.43691   1.000
    O142    O    0.41968   0.59729   0.43632   1.000
    O143    O    0.59054   0.59768   0.43647   1.000
    N144    N    0.74662   0.77628   0.69157   1.000
    O145    O    0.74975   0.72416   0.64506   1.000
    O146    O    0.74497   0.78710   0.73787   1.000
    N147    N    0.00518   0.09582   0.06307   1.000
    O148    O    0.91990   0.09740   0.06361   1.000
    O149    O    0.09075   0.09776   0.06354   1.000
    N150    N    0.99483   0.90414   0.93692   1.000
    O151    O    0.90926   0.90221   0.93646   1.000
    O152    O    0.08011   0.90256   0.93639   1.000
    N153    N    0.49483   0.90415   0.93692   1.000
    O154    O    0.40926   0.90222   0.93645   1.000
    O155    O    0.58012   0.90257   0.93638   1.000
    N156    N    0.50518   0.09584   0.06307   1.000
    O157    O    0.59075   0.09777   0.06353   1.000
    O158    O    0.41989   0.09742   0.06360   1.000
    N159    N    0.75309   0.72321   0.19153   1.000
    O160    O    0.75490   0.71248   0.23783   1.000
    O161    O    0.75068   0.77544   0.14504   1.000
    N162    N    0.75340   0.22368   0.30839   1.000
    O163    O    0.75505   0.21286   0.26211   1.000
    O164    O    0.75027   0.27580   0.35491   1.000
    N165    N    0.24661   0.77629   0.69157   1.000
    O166    O    0.24974   0.72417   0.64506   1.000
    O167    O    0.24496   0.78711   0.73787   1.000
loop_
    _geom_bond_atom_site_label_1
    _geom_bond_atom_site_label_2
    _geom_bond_distance
    _geom_bond_site_symmetry_2
    _ccdc_geom_bond_type
    Zr46   O56       0.63827      .   S
    Zr18   O56       0.63827      .   S
    Zr46   O57       1.16557  1_554   S
    Zr6    O57       1.16557      .   S
    Zr47   O58       0.63825      .   S
    Zr19   O58       0.63825      .   S
    Zr47   O59       1.16560  1_554   S
    Zr7    O59       1.16560      .   S
    Zr45   O60       1.20232  1_565   S
    Zr3    O60       1.20232      .   S
    Zr45   O61       0.63874      .   S
    Zr19   O61       0.63874      .   S
    Zr44   O62       1.20232  1_565   S
    Zr2    O62       1.20232      .   S
    Zr44   O63       0.63872      .   S
    Zr18   O63       0.63872      .   S
    Zr3    O64       1.20392      .   S
    Zr35   O64       1.20392      .   S
    Zr3    O65       1.18937      .   S
    Zr33   O65       1.18937      .   S
    Zr3    O66       1.16561      .   S
    Zr31   O66       1.16561  1_556   S
    Zr2    O67       1.20395      .   S
    Zr34   O67       1.20395      .   S
    Zr2    O68       1.18936      .   S
    Zr32   O68       1.18936      .   S
    Zr2    O69       1.16557      .   S
    Zr30   O69       1.16557  1_556   S
    Zr34   O70       0.63333      .   S
    Zr12   O70       0.63333      .   S
    Zr35   O71       0.63410      .   S
    Zr13   O71       0.63410      .   S
    Zr32   O72       0.64042      .   S
    Zr12   O72       0.64042      .   S
    Zr33   O73       0.64050      .   S
    Zr13   O73       0.64050      .   S
    Zr17   O74       0.64042      .   S
    Zr41   O74       0.64042      .   S
    Zr17   O75       0.62835      .   S
    Zr43   O75       0.62835      .   S
    Zr16   O76       0.64047      .   S
    Zr40   O76       0.64047      .   S
    Zr16   O77       0.62834      .   S
    Zr42   O77       0.62834      .   S
    Zr41   O78       1.18890      .   S
    Zr5    O78       1.18890      .   S
    Zr40   O79       1.18891      .   S
    Zr4    O79       1.18891      .   S
    Zr43   O80       1.20840      .   S
    Zr5    O80       1.20840      .   S
    Zr42   O81       1.20878      .   S
    Zr4    O81       1.20878      .   S
    Zr14   O82       0.63867      .   S
    Zr36   O82       0.63867      .   S
    Zr14   O83       0.63776      .   S
    Zr38   O83       0.63776      .   S
    Zr15   O84       0.63867      .   S
    Zr37   O84       0.63867      .   S
    Zr15   O85       0.63839      .   S
    Zr39   O85       0.63839      .   S
    Zr5    O86       1.20082      .   S
    Zr37   O86       1.20082      .   S
    Zr5    O87       1.16582      .   S
    Zr55   O87       1.16582      .   S
    Zr4    O88       1.20073      .   S
    Zr36   O88       1.20073      .   S
    Zr4    O89       1.16531      .   S
    Zr54   O89       1.16531      .   S
    Zr38   O90       1.16572      .   S
    Zr0    O90       1.16572      .   S
    Zr39   O91       1.16525      .   S
    Zr1    O91       1.16525      .   S
    Zr55   O92       0.63840      .   S
    Zr23   O92       0.63840      .   S
    Zr54   O93       0.63839      .   S
    Zr22   O93       0.63839      .   S
    Zr52   O94       1.20073      .   S
    Zr0    O94       1.20073      .   S
    Zr52   O95       0.63867      .   S
    Zr22   O95       0.63867      .   S
    Zr53   O96       1.20075      .   S
    Zr1    O96       1.20075      .   S
    Zr53   O97       0.63867      .   S
    Zr23   O97       0.63867      .   S
    Zr0    O98       1.20440      .   S
    Zr26   O98       1.20440      .   S
    Zr0    O99       1.18911      .   S
    Zr24   O99       1.18911      .   S
    Zr1    O100      1.20236      .   S
    Zr27   O100      1.20236      .   S
    Zr1    O101      1.18890      .   S
    Zr25   O101      1.18890      .   S
    Zr27   O102      0.63652      .   S
    Zr9    O102      0.63652      .   S
    Zr26   O103      0.63412      .   S
    Zr8    O103      0.63412      .   S
    Zr24   O104      0.64048      .   S
    Zr8    O104      0.64048      .   S
    Zr25   O105      0.64049      .   S
    Zr9    O105      0.64049      .   S
    Zr21   O106      0.64050      .   S
    Zr49   O106      0.64050      .   S
    Zr21   O107      0.63409      .   S
    Zr51   O107      0.63409      .   S
    Zr20   O108      0.64051      .   S
    Zr48   O108      0.64051      .   S
    Zr20   O109      0.63409      .   S
    Zr50   O109      0.63409      .   S
    Zr48   O110      1.18937      .   S
    Zr6    O110      1.18937      .   S
    Zr49   O111      1.18936      .   S
    Zr7    O111      1.18936      .   S
    Zr51   O112      1.20394      .   S
    Zr7    O112      1.20394      .   S
    Zr50   O113      1.20393      .   S
    Zr6    O113      1.20393      .   S
    Zr10   O114      0.63874      .   S
    Zr28   O114      0.63874      .   S
    Zr10   O115      0.63835      .   S
    Zr30   O115      0.63835      .   S
    Zr11   O116      0.63873      .   S
    Zr29   O116      0.63873      .   S
    Zr11   O117      0.63826      .   S
    Zr31   O117      0.63826      .   S
    Zr7    O118      1.20233      .   S
    Zr29   O118      1.20233  1_545   S
    Zr6    O119      1.20230      .   S
    Zr28   O119      1.20230  1_545   S
    N120   O121      1.23955      .   S
    Zr18   O121      1.97476      .   S
    N120   O122      0.99091      .   S
    Zr16   O122      1.72844      .   S
    N123   O124      1.29169  1_455   S
    Zr5    O124      2.48903      .   S
    N123   O125      1.29380      .   S
    Zr4    O125      2.49517      .   S
    N126   O127      1.29386      .   S
    Zr0    O127      2.49521      .   S
    N126   O128      1.29175      .   S
    Zr1    O128      2.48908      .   S
    N129   O130      1.23873      .   S
    Zr14   O130      1.97423      .   S
    N129   O131      0.99135      .   S
    Zr12   O131      1.72967      .   S
    N132   O133      1.29381      .   S
    Zr1    O133      2.49517      .   S
    N132   O134      1.29169  1_655   S
    Zr0    O134      2.48902      .   S
    N135   O136      0.99084      .   S
    Zr9    O136      1.72837      .   S
    N135   O137      1.23932      .   S
    Zr11   O137      1.97515      .   S
    N138   O139      0.99078      .   S
    Zr8    O139      1.72832      .   S
    N138   O140      1.23928      .   S
    Zr10   O140      1.97509      .   S
    N141   O142      1.29176      .   S
    Zr4    O142      2.48910      .   S
    N141   O143      1.29387      .   S
    Zr5    O143      2.49524      .   S
    N144   O145      1.23870      .   S
    Zr23   O145      1.97421      .   S
    N144   O146      0.99092      .   S
    Zr21   O146      1.72833      .   S
    N147   O148      1.29171  1_455   S
    Zr3    O148      2.48922      .   S
    N147   O149      1.29380      .   S
    Zr2    O149      2.49487      .   S
    N150   O151      1.29379      .   S
    Zr7    O151      2.49484      .   S
    N150   O152      1.29172  1_655   S
    Zr6    O152      2.48924      .   S
    N153   O154      1.29387      .   S
    Zr6    O154      2.49494      .   S
    N153   O155      1.29177      .   S
    Zr7    O155      2.48929      .   S
    N156   O157      1.29386      .   S
    Zr3    O157      2.49491      .   S
    N156   O158      1.29178      .   S
    Zr2    O158      2.48930      .   S
    N159   O160      0.99088      .   S
    Zr17   O160      1.72840      .   S
    N159   O161      1.23929      .   S
    Zr19   O161      1.97512      .   S
    N162   O163      0.99062      .   S
    Zr13   O163      1.72803      .   S
    N162   O164      1.23897      .   S
    Zr15   O164      1.97451      .   S
    N165   O166      1.23872      .   S
    Zr22   O166      1.97423      .   S
    N165   O167      0.99091      .   S
    Zr20   O167      1.72832      .   S
