# CIF file generated by openbabel 2.4.90, see http://openbabel.sf.net
data_I
_chemical_name_common ''
_cell_length_a 10.209
_cell_length_b 10.2175
_cell_length_c 16.563
_cell_angle_alpha 83.417
_cell_angle_beta 83.414
_cell_angle_gamma 86.005
_space_group_name_H-M_alt 'P 1'
_space_group_name_Hall 'P 1'
loop_
    _symmetry_equiv_pos_as_xyz
    x,y,z
loop_
    _atom_site_label
    _atom_site_type_symbol
    _atom_site_fract_x
    _atom_site_fract_y
    _atom_site_fract_z
    _atom_site_occupancy
    C0      C    0.93358   0.25502   0.83363   1.000
    C1      C    0.77199   0.45051   0.78784   1.000
    C2      C    0.25507   0.93353   0.33367   1.000
    C3      C    0.45057   0.77198   0.28785   1.000
    C4      C    0.96151   0.09062   0.69739   1.000
    C5      C    0.37708   0.05365   0.61036   1.000
    C6      C    0.41705   0.20254   0.71446   1.000
    C7      C    0.22370   0.28857   0.80473   1.000
    C8      C    0.26998   0.05207   0.48595   1.000
    C9      C    0.98524   0.86930   0.66994   1.000
    C10     C    0.05966   0.75318   0.42511   1.000
    C11     C    0.95228   0.64568   0.69633   1.000
    C12     C    0.83604   0.71988   0.45150   1.000
    C13     C    0.65330   0.43528   0.63554   1.000
    C14     C    0.61497   0.74358   0.42406   1.000
    C15     C    0.65103   0.32843   0.51122   1.000
    C16     C    0.50173   0.28880   0.40722   1.000
    C17     C    0.41601   0.48213   0.31688   1.000
    C18     C    0.09078   0.96188   0.19743   1.000
    C19     C    0.05488   0.37696   0.11016   1.000
    C20     C    0.20423   0.41662   0.21412   1.000
    C21     C    0.28986   0.22332   0.30452   1.000
    C22     C    0.05239   0.27015   0.98590   1.000
    C23     C    0.86974   0.98556   0.16997   1.000
    C24     C    0.75338   0.05975   0.92513   1.000
    C25     C    0.64601   0.95233   0.19640   1.000
    C26     C    0.72044   0.83615   0.95154   1.000
    C27     C    0.43572   0.65338   0.13561   1.000
    C28     C    0.74405   0.61495   0.92406   1.000
    C29     C    0.32862   0.65156   0.01132   1.000
    C30     C    0.28862   0.50258   0.90724   1.000
    C31     C    0.48193   0.41669   0.81689   1.000
    C32     C    0.06466   0.11065   0.69970   1.000
    C33     C    0.16549   0.05894   0.64573   1.000
    C34     C    0.29503   0.09319   0.65032   1.000
    C35     C    0.31736   0.17594   0.70805   1.000
    C36     C    0.21101   0.22249   0.75934   1.000
    C37     C    0.19495   0.98112   0.50656   1.000
    C38     C    0.13275   0.97162   0.58666   1.000
    C39     C    0.03639   0.87900   0.60825   1.000
    C40     C    0.00625   0.79896   0.55047   1.000
    C41     C    0.07502   0.81539   0.47217   1.000
    C42     C    0.89003   0.63028   0.64928   1.000
    C43     C    0.90644   0.69900   0.57097   1.000
    C44     C    0.82638   0.66878   0.51320   1.000
    C45     C    0.73376   0.57243   0.53480   1.000
    C46     C    0.72427   0.51028   0.61490   1.000
    C47     C    0.59465   0.64063   0.42178   1.000
    C48     C    0.64624   0.53981   0.47577   1.000
    C49     C    0.61161   0.41047   0.47124   1.000
    C50     C    0.52864   0.38833   0.41356   1.000
    C51     C    0.48227   0.49466   0.36223   1.000
    C52     C    0.11111   0.06480   0.19970   1.000
    C53     C    0.05957   0.16560   0.14568   1.000
    C54     C    0.09426   0.29494   0.15016   1.000
    C55     C    0.17726   0.31709   0.20782   1.000
    C56     C    0.22359   0.21078   0.25918   1.000
    C57     C    0.98144   0.19513   0.00000   1.000
    C58     C    0.97191   0.13302   0.08669   1.000
    C59     C    0.87931   0.03665   0.10828   1.000
    C60     C    0.79927   0.00645   0.05052   1.000
    C61     C    0.81564   0.07516   0.97218   1.000
    C62     C    0.63064   0.89012   0.14934   1.000
    C63     C    0.69944   0.90651   0.07104   1.000
    C64     C    0.66927   0.82649   0.01327   1.000
    C65     C    0.57290   0.73388   0.03487   1.000
    C66     C    0.51074   0.72434   0.11498   1.000
    C67     C    0.64097   0.59481   0.92179   1.000
    C68     C    0.54017   0.64644   0.97581   1.000
    C69     C    0.41064   0.61208   0.97129   1.000
    C70     C    0.38830   0.52928   0.91360   1.000
    C71     C    0.49462   0.48281   0.86225   1.000
    C72     C    0.71027   0.20369   0.76652   1.000
    C73     C    0.99530   0.50181   0.85498   1.000
    C74     C    0.20355   0.71058   0.26638   1.000
    C75     C    0.50214   0.99488   0.35516   1.000
    C76     C    0.08539   0.19063   0.75577   1.000
    C77     C    0.16697   0.90510   0.44997   1.000
    C78     C    0.80036   0.53828   0.67147   1.000
    C79     C    0.51453   0.62008   0.36572   1.000
    C80     C    0.19124   0.08538   0.25575   1.000
    C81     C    0.90529   0.16717   0.94999   1.000
    C82     C    0.53869   0.80040   0.17155   1.000
    C83     C    0.62022   0.51478   0.86574   1.000
    O84     O    0.97667   0.16407   0.04334   1.000
    O85     O    0.94336   0.18115   0.97499   1.000
    O86     O    0.01691   0.23264   0.99295   1.000
    O87     O    0.36963   0.63182   0.99130   1.000
    O88     O    0.62108   0.78018   0.02407   1.000
    O89     O    0.68435   0.86650   0.04215   1.000
    O90     O    0.69485   0.83132   0.98240   1.000
    O91     O    0.54182   0.72911   0.07492   1.000
    O92     O    0.55654   0.69016   0.00534   1.000
    O93     O    0.74936   0.95648   0.06078   1.000
    O94     O    0.83929   0.02155   0.07940   1.000
    O95     O    0.80745   0.04081   0.01135   1.000
    O96     O    0.66504   0.89831   0.11019   1.000
    O97     O    0.92561   0.08483   0.09748   1.000
    O98     O    0.01574   0.14931   0.11619   1.000
    O99     O    0.87452   0.01110   0.13913   1.000
    O100    O    0.07457   0.33595   0.13016   1.000
    O101    O    0.47323   0.68886   0.12530   1.000
    O102    O    0.52471   0.76237   0.14327   1.000
    O103    O    0.07692   0.23027   0.14792   1.000
    O104    O    0.08534   0.11520   0.17269   1.000
    O105    O    0.58467   0.84526   0.16045   1.000
    O106    O    0.63833   0.92122   0.17287   1.000
    O107    O    0.13576   0.30601   0.17899   1.000
    O108    O    0.49463   0.78619   0.22970   1.000
    O109    O    0.10094   0.01334   0.19856   1.000
    O110    O    0.15118   0.07509   0.22773   1.000
    O111    O    0.19075   0.36685   0.21097   1.000
    O112    O    0.20042   0.26393   0.23350   1.000
    O113    O    0.20742   0.14808   0.25747   1.000
    O114    O    0.22316   0.00945   0.29471   1.000
    O115    O    0.25672   0.21705   0.28185   1.000
    O116    O    0.32706   0.74128   0.27712   1.000
    O117    O    0.35282   0.85276   0.31076   1.000
    O118    O    0.48255   0.69603   0.32679   1.000
    O119    O    0.44914   0.48839   0.33956   1.000
    O120    O    0.37860   0.96420   0.34441   1.000
    O121    O    0.21102   0.91932   0.39182   1.000
    O122    O    0.49840   0.55737   0.36398   1.000
    O123    O    0.50546   0.44150   0.38789   1.000
    O124    O    0.55459   0.63036   0.39375   1.000
    O125    O    0.51519   0.33856   0.41039   1.000
    O126    O    0.57013   0.39940   0.44240   1.000
    O127    O    0.60481   0.69211   0.42292   1.000
    O128    O    0.62044   0.59022   0.44877   1.000
    O129    O    0.06734   0.78429   0.44864   1.000
    O130    O    0.12100   0.86025   0.46107   1.000
    O131    O    0.18096   0.94311   0.47827   1.000
    O132    O    0.83121   0.69433   0.48235   1.000
    O133    O    0.62892   0.47514   0.47350   1.000
    O134    O    0.63132   0.36945   0.49123   1.000
    O135    O    0.04063   0.80718   0.51132   1.000
    O136    O    0.69000   0.55612   0.50528   1.000
    O137    O    0.23246   0.01660   0.49626   1.000
    O138    O    0.16385   0.97637   0.54661   1.000
    O139    O    0.78007   0.62061   0.52400   1.000
    O140    O    0.86641   0.68389   0.54209   1.000
    O141    O    0.72901   0.54136   0.57485   1.000
    O142    O    0.95634   0.74898   0.56072   1.000
    O143    O    0.02132   0.83898   0.57936   1.000
    O144    O    0.89823   0.66464   0.61013   1.000
    O145    O    0.08457   0.92531   0.59746   1.000
    O146    O    0.14912   0.01528   0.61619   1.000
    O147    O    0.01081   0.87415   0.63910   1.000
    O148    O    0.33606   0.07342   0.63034   1.000
    O149    O    0.68878   0.47278   0.62522   1.000
    O150    O    0.76231   0.52428   0.64319   1.000
    O151    O    0.23026   0.07606   0.64803   1.000
    O152    O    0.11507   0.08479   0.67272   1.000
    O153    O    0.84519   0.58428   0.66038   1.000
    O154    O    0.92115   0.63798   0.67280   1.000
    O155    O    0.30620   0.13456   0.67919   1.000
    O156    O    0.78617   0.49439   0.72966   1.000
    O157    O    0.01309   0.10063   0.69855   1.000
    O158    O    0.07503   0.15064   0.72774   1.000
    O159    O    0.36720   0.18924   0.71125   1.000
    O160    O    0.26419   0.19921   0.73370   1.000
    O161    O    0.14820   0.20656   0.75756   1.000
    O162    O    0.00949   0.22282   0.79470   1.000
    O163    O    0.21736   0.25553   0.78204   1.000
    O164    O    0.74113   0.32710   0.77718   1.000
    O165    O    0.85279   0.35276   0.81074   1.000
    O166    O    0.69611   0.48264   0.82679   1.000
    O167    O    0.48827   0.44975   0.83957   1.000
    O168    O    0.96444   0.37842   0.84430   1.000
    O169    O    0.91944   0.21110   0.89181   1.000
    O170    O    0.55742   0.49879   0.86400   1.000
    O171    O    0.44146   0.50604   0.88793   1.000
    O172    O    0.63060   0.55479   0.89377   1.000
    O173    O    0.33846   0.51593   0.91042   1.000
    O174    O    0.39947   0.57068   0.94244   1.000
    O175    O    0.69251   0.60488   0.92292   1.000
    O176    O    0.59057   0.62063   0.94880   1.000
    O177    O    0.78451   0.06745   0.94866   1.000
    O178    O    0.86047   0.12117   0.96108   1.000
    O179    O    0.47541   0.62926   0.97355   1.000
loop_
    _geom_bond_atom_site_label_1
    _geom_bond_atom_site_label_2
    _geom_bond_distance
    _geom_bond_site_symmetry_2
    _ccdc_geom_bond_type
    C57    O84       0.74858      .   S
    C58    O84       0.74858      .   S
    C57    O85       0.63344  1_554   S
    C81    O85       0.63344      .   S
    C57    O86       0.53950  1_654   S
    C22    O86       0.53950      .   S
    C29    O87       0.54554  1_554   S
    C69    O87       0.54554      .   S
    C64    O88       0.70047      .   S
    C65    O88       0.70047      .   S
    C64    O89       0.70024      .   S
    C63    O89       0.70024      .   S
    C64    O90       0.54527  1_554   S
    C26    O90       0.54527      .   S
    C65    O91       0.69980      .   S
    C66    O91       0.69980      .   S
    C65    O92       0.73880      .   S
    C68    O92       0.73880  1_556   S
    C60    O93       0.73873  1_545   S
    C63    O93       0.73873      .   S
    C60    O94       0.70003      .   S
    C59    O94       0.70003      .   S
    C60    O95       0.70041      .   S
    C61    O95       0.70041  1_556   S
    C63    O96       0.70019      .   S
    C62    O96       0.70019      .   S
    C58    O97       0.70046      .   S
    C59    O97       0.70046      .   S
    C58    O98       0.73878  1_655   S
    C53    O98       0.73878      .   S
    C59    O99       0.54500      .   S
    C23    O99       0.54500  1_565   S
    C19    O100      0.54543      .   S
    C54    O100      0.54543      .   S
    C66    O101      0.54534      .   S
    C27    O101      0.54534      .   S
    C66    O102      0.67499      .   S
    C82    O102      0.67499      .   S
    C53    O103      0.70195      .   S
    C54    O103      0.70195      .   S
    C53    O104      0.69987      .   S
    C52    O104      0.69987      .   S
    C62    O105      0.67458      .   S
    C82    O105      0.67458      .   S
    C62    O106      0.54579      .   S
    C25    O106      0.54579      .   S
    C54    O107      0.69697      .   S
    C55    O107      0.69697      .   S
    C82    O108      1.01427      .   S
    C3     O108      1.01427      .   S
    C18    O109      0.54579  1_565   S
    C52    O109      0.54579      .   S
    C52    O110      0.67422      .   S
    C80    O110      0.67422      .   S
    C55    O111      0.54562      .   S
    C20    O111      0.54562      .   S
    C55    O112      0.69572      .   S
    C56    O112      0.69572      .   S
    C80    O113      0.67712      .   S
    C56    O113      0.67712      .   S
    C80    O114      1.01121      .   S
    C2     O114      1.01121  1_565   S
    C56    O115      0.54514      .   S
    C21    O115      0.54514      .   S
    C74    O116      1.35624      .   S
    C3     O116      1.35624      .   S
    C3     O117      1.30045      .   S
    C2     O117      1.30045      .   S
    C3     O118      1.01139      .   S
    C79    O118      1.01139      .   S
    C17    O119      0.54514      .   S
    C51    O119      0.54514      .   S
    C2     O120      1.35639      .   S
    C75    O120      1.35639      .   S
    C2     O121      1.01421      .   S
    C77    O121      1.01421      .   S
    C51    O122      0.67714      .   S
    C79    O122      0.67714      .   S
    C51    O123      0.69571      .   S
    C50    O123      0.69571      .   S
    C79    O124      0.67422      .   S
    C47    O124      0.67422      .   S
    C16    O125      0.54563      .   S
    C50    O125      0.54563      .   S
    C50    O126      0.69697      .   S
    C49    O126      0.69697      .   S
    C47    O127      0.54593      .   S
    C14    O127      0.54593      .   S
    C47    O128      0.69988      .   S
    C48    O128      0.69988      .   S
    C10    O129      0.54579      .   S
    C41    O129      0.54579      .   S
    C77    O130      0.67457      .   S
    C41    O130      0.67457      .   S
    C77    O131      0.67500      .   S
    C37    O131      0.67500      .   S
    C12    O132      0.54506      .   S
    C44    O132      0.54506      .   S
    C49    O133      0.70195      .   S
    C48    O133      0.70195      .   S
    C49    O134      0.54543      .   S
    C15    O134      0.54543      .   S
    C41    O135      0.70012      .   S
    C40    O135      0.70012      .   S
    C48    O136      0.73859      .   S
    C45    O136      0.73859      .   S
    C8     O137      0.54534      .   S
    C37    O137      0.54534  1_565   S
    C37    O138      0.69972      .   S
    C38    O138      0.69972      .   S
    C44    O139      0.70045      .   S
    C45    O139      0.70045      .   S
    C44    O140      0.70023      .   S
    C43    O140      0.70023      .   S
    C45    O141      0.69980      .   S
    C46    O141      0.69980      .   S
    C40    O142      0.73872  1_455   S
    C43    O142      0.73872      .   S
    C40    O143      0.70027      .   S
    C39    O143      0.70027      .   S
    C43    O144      0.70019      .   S
    C42    O144      0.70019      .   S
    C38    O145      0.70047      .   S
    C39    O145      0.70047      .   S
    C38    O146      0.73854  1_565   S
    C33    O146      0.73854      .   S
    C39    O147      0.54500      .   S
    C9     O147      0.54500  1_655   S
    C5     O148      0.54542      .   S
    C34    O148      0.54542      .   S
    C46    O149      0.54535      .   S
    C13    O149      0.54535      .   S
    C46    O150      0.67501      .   S
    C78    O150      0.67501      .   S
    C33    O151      0.70197      .   S
    C34    O151      0.70197      .   S
    C33    O152      0.69987      .   S
    C32    O152      0.69987      .   S
    C42    O153      0.67458      .   S
    C78    O153      0.67458      .   S
    C42    O154      0.54579      .   S
    C11    O154      0.54579      .   S
    C34    O155      0.69695      .   S
    C35    O155      0.69695      .   S
    C78    O156      1.01425      .   S
    C1     O156      1.01425      .   S
    C4     O157      0.54617  1_655   S
    C32    O157      0.54617      .   S
    C32    O158      0.67424      .   S
    C76    O158      0.67424      .   S
    C35    O159      0.54563      .   S
    C6     O159      0.54563      .   S
    C35    O160      0.69570      .   S
    C36    O160      0.69570      .   S
    C76    O161      0.67715      .   S
    C36    O161      0.67715      .   S
    C76    O162      1.01140      .   S
    C0     O162      1.01140  1_655   S
    C36    O163      0.54513      .   S
    C7     O163      0.54513      .   S
    C72    O164      1.35631      .   S
    C1     O164      1.35631      .   S
    C1     O165      1.30065      .   S
    C0     O165      1.30065      .   S
    C1     O166      1.01128      .   S
    C83    O166      1.01128      .   S
    C31    O167      0.54514      .   S
    C71    O167      0.54514      .   S
    C0     O168      1.35623      .   S
    C73    O168      1.35623      .   S
    C0     O169      1.01426      .   S
    C81    O169      1.01426      .   S
    C71    O170      0.67714      .   S
    C83    O170      0.67714      .   S
    C71    O171      0.69570      .   S
    C70    O171      0.69570      .   S
    C83    O172      0.67424      .   S
    C67    O172      0.67424      .   S
    C30    O173      0.54563      .   S
    C70    O173      0.54563      .   S
    C70    O174      0.69695      .   S
    C69    O174      0.69695      .   S
    C67    O175      0.54594      .   S
    C28    O175      0.54594      .   S
    C67    O176      0.69988      .   S
    C68    O176      0.69988      .   S
    C24    O177      0.54580      .   S
    C61    O177      0.54580      .   S
    C81    O178      0.67457      .   S
    C61    O178      0.67457      .   S
    C69    O179      0.70199      .   S
    C68    O179      0.70199      .   S
