# CIF file generated by openbabel 2.4.90, see http://openbabel.sf.net
data_I
_chemical_name_common ''
_cell_length_a 20.211
_cell_length_b 23.023
_cell_length_c 14.943
_cell_angle_alpha 91.186
_cell_angle_beta 89.997
_cell_angle_gamma 89.948
_space_group_name_H-M_alt 'P 1'
_space_group_name_Hall 'P 1'
loop_
    _symmetry_equiv_pos_as_xyz
    x,y,z
loop_
    _atom_site_label
    _atom_site_type_symbol
    _atom_site_fract_x
    _atom_site_fract_y
    _atom_site_fract_z
    _atom_site_occupancy
    H0      H    0.37879   0.42924   0.37155   1.000
    H1      H    0.37879   0.92924   0.37150   1.000
    H2      H    0.87878   0.42924   0.37150   1.000
    H3      H    0.87878   0.92924   0.37156   1.000
    H4      H    0.02804   0.23654   0.26827   1.000
    H5      H    0.02805   0.73654   0.26827   1.000
    H6      H    0.52803   0.23654   0.26827   1.000
    H7      H    0.52803   0.73654   0.26827   1.000
    H8      H    0.30451   0.28000   0.04717   1.000
    H9      H    0.30451   0.78001   0.04717   1.000
    H10     H    0.80450   0.28000   0.04717   1.000
    H11     H    0.80450   0.78000   0.04717   1.000
    H12     H    0.10530   0.49043   0.23035   1.000
    H13     H    0.10530   0.99043   0.23035   1.000
    H14     H    0.60529   0.49043   0.23035   1.000
    H15     H    0.60529   0.99043   0.23035   1.000
    H16     H    0.08091   0.34408   0.92165   1.000
    H17     H    0.08091   0.84409   0.92165   1.000
    H18     H    0.58089   0.34408   0.92164   1.000
    H19     H    0.58090   0.84409   0.92165   1.000
    H20     H    0.35416   0.00123   0.01225   1.000
    H21     H    0.35416   0.50123   0.01225   1.000
    H22     H    0.85414   0.00122   0.01225   1.000
    H23     H    0.85415   0.50123   0.01225   1.000
    H24     H    0.12889   0.32077   0.12840   1.000
    H25     H    0.12889   0.82078   0.12840   1.000
    H26     H    0.62887   0.32077   0.12848   1.000
    H27     H    0.62888   0.82078   0.12840   1.000
    H28     H    0.27793   0.01345   0.23170   1.000
    H29     H    0.27793   0.51345   0.23170   1.000
    H30     H    0.77792   0.01345   0.23170   1.000
    H31     H    0.77792   0.51345   0.23171   1.000
    H32     H    0.05448   0.47023   0.45281   1.000
    H33     H    0.05448   0.97024   0.45281   1.000
    H34     H    0.55446   0.47023   0.45281   1.000
    H35     H    0.55447   0.97024   0.45281   1.000
    H36     H    0.35534   0.25949   0.26965   1.000
    H37     H    0.35535   0.75950   0.26965   1.000
    H38     H    0.85533   0.25949   0.26965   1.000
    H39     H    0.85534   0.75950   0.26965   1.000
    H40     H    0.33092   0.40583   0.57829   1.000
    H41     H    0.33093   0.90584   0.57829   1.000
    H42     H    0.83091   0.40583   0.57829   1.000
    H43     H    0.83091   0.90584   0.57829   1.000
    H44     H    0.10427   0.24888   0.48785   1.000
    H45     H    0.10427   0.74889   0.48785   1.000
    H46     H    0.60426   0.24888   0.48785   1.000
    H47     H    0.60426   0.74889   0.48785   1.000
    H48     H    0.12120   0.07077   0.62845   1.000
    H49     H    0.12120   0.57078   0.62845   1.000
    H50     H    0.62119   0.07077   0.62845   1.000
    H51     H    0.62119   0.57078   0.62845   1.000
    C52     C    0.98648   0.74068   0.79310   1.000
    C53     C    0.14164   0.21247   0.94646   1.000
    C54     C    0.14165   0.71247   0.94646   1.000
    C55     C    0.64163   0.21247   0.94646   1.000
    H56     H    0.47194   0.26347   0.73173   1.000
    H57     H    0.47195   0.76348   0.73173   1.000
    H58     H    0.97194   0.26347   0.73173   1.000
    H59     H    0.97193   0.76348   0.73173   1.000
    H60     H    0.19548   0.22001   0.95283   1.000
    H61     H    0.19548   0.72001   0.95283   1.000
    H62     H    0.69547   0.22001   0.95283   1.000
    H63     H    0.69547   0.72001   0.95283   1.000
    H64     H    0.39469   0.00958   0.76965   1.000
    H65     H    0.39469   0.50958   0.76965   1.000
    H66     H    0.89468   0.00958   0.76965   1.000
    H67     H    0.89468   0.50959   0.76965   1.000
    H68     H    0.41908   0.15592   0.07835   1.000
    H69     H    0.41908   0.65593   0.07830   1.000
    H70     H    0.91907   0.15592   0.07836   1.000
    H71     H    0.91907   0.65593   0.07836   1.000
    H72     H    0.14583   0.49878   0.98775   1.000
    H73     H    0.14584   0.99879   0.98775   1.000
    H74     H    0.64582   0.49878   0.98775   1.000
    H75     H    0.64582   0.99879   0.98775   1.000
    H76     H    0.37110   0.17924   0.87152   1.000
    H77     H    0.37110   0.67924   0.87152   1.000
    H78     H    0.87109   0.17924   0.87152   1.000
    H79     H    0.87109   0.67924   0.87152   1.000
    H80     H    0.22205   0.48656   0.76830   1.000
    H81     H    0.22206   0.98656   0.76830   1.000
    H82     H    0.72204   0.48656   0.76830   1.000
    H83     H    0.72205   0.98657   0.76830   1.000
    O84     O    0.37546   0.32567   0.11352   1.000
    O85     O    0.37547   0.82568   0.11350   1.000
    O86     O    0.87545   0.32567   0.11350   1.000
    O87     O    0.87545   0.82567   0.11350   1.000
    O88     O    0.39622   0.25860   0.00342   1.000
    H89     H    0.44551   0.02978   0.54719   1.000
    H90     H    0.44551   0.52978   0.54719   1.000
    H91     H    0.94550   0.02977   0.54719   1.000
    H92     H    0.94550   0.52978   0.54719   1.000
    H93     H    0.14464   0.24052   0.73035   1.000
    H94     H    0.14465   0.74052   0.73035   1.000
    H95     H    0.64463   0.24052   0.73035   1.000
    H96     H    0.64463   0.74052   0.73035   1.000
    H97     H    0.16906   0.09418   0.42171   1.000
    H98     H    0.16907   0.59418   0.42171   1.000
    H99     H    0.66905   0.09418   0.42171   1.000
    H100    H    0.66906   0.59418   0.42171   1.000
    H101    H    0.39572   0.25113   0.51210   1.000
    H102    H    0.39572   0.75113   0.51210   1.000
    H103    H    0.89571   0.25113   0.51216   1.000
    H104    H    0.89571   0.75113   0.51216   1.000
    C105    C    0.41934   0.41308   0.32828   1.000
    C106    C    0.41934   0.91308   0.32828   1.000
    C107    C    0.91933   0.41308   0.32828   1.000
    C108    C    0.91933   0.91308   0.32828   1.000
    C109    C    0.01350   0.25934   0.20690   1.000
    C110    C    0.01351   0.75934   0.20690   1.000
    C111    C    0.51349   0.25934   0.20690   1.000
    C112    C    0.51349   0.75934   0.20690   1.000
    C113    C    0.35835   0.28754   0.05350   1.000
    C114    C    0.35835   0.78754   0.05354   1.000
    C115    C    0.85833   0.28754   0.05354   1.000
    C116    C    0.85834   0.78754   0.05350   1.000
    C117    C    0.06860   0.47586   0.17967   1.000
    C118    C    0.06861   0.97586   0.17967   1.000
    C119    C    0.56859   0.47586   0.17967   1.000
    C120    C    0.56860   0.97586   0.17967   1.000
    C121    C    0.05052   0.37145   0.96703   1.000
    C122    C    0.05052   0.87146   0.96703   1.000
    C123    C    0.55051   0.37145   0.96703   1.000
    C124    C    0.55051   0.87146   0.96703   1.000
    C125    C    0.36318   0.46491   0.05758   1.000
    C126    C    0.36319   0.96492   0.05758   1.000
    C127    C    0.86317   0.46491   0.05758   1.000
    C128    C    0.86318   0.96492   0.05758   1.000
    C129    C    0.16940   0.33695   0.17170   1.000
    C130    C    0.16941   0.83695   0.17170   1.000
    C131    C    0.66939   0.33695   0.17170   1.000
    C132    C    0.66939   0.83695   0.17170   1.000
    C133    C    0.26343   0.49067   0.29309   1.000
    C134    C    0.26343   0.99068   0.29309   1.000
    C135    C    0.76342   0.49067   0.29300   1.000
    C136    C    0.76342   0.99068   0.29309   1.000
    C137    C    0.10831   0.46263   0.44642   1.000
    C138    C    0.10832   0.96263   0.44642   1.000
    C139    C    0.60830   0.46263   0.44642   1.000
    C140    C    0.60831   0.96263   0.44642   1.000
    C141    C    0.31863   0.27411   0.32032   1.000
    C142    C    0.31863   0.77412   0.32032   1.000
    C143    C    0.81862   0.27411   0.32032   1.000
    C144    C    0.81862   0.77412   0.32032   1.000
    C145    C    0.30052   0.37851   0.53294   1.000
    C146    C    0.30052   0.87851   0.53294   1.000
    C147    C    0.80051   0.37851   0.53294   1.000
    C148    C    0.80051   0.87851   0.53294   1.000
    C149    C    0.11324   0.28517   0.44247   1.000
    C150    C    0.11325   0.78517   0.44247   1.000
    C151    C    0.61323   0.28517   0.44247   1.000
    C152    C    0.61323   0.78517   0.44247   1.000
    C153    C    0.08065   0.08693   0.67172   1.000
    C154    C    0.08065   0.58694   0.67172   1.000
    C155    C    0.58064   0.08693   0.67172   1.000
    C156    C    0.58064   0.58694   0.67172   1.000
    C157    C    0.48648   0.24067   0.79310   1.000
    C158    C    0.48649   0.74068   0.79310   1.000
    C159    C    0.98647   0.24067   0.79310   1.000
    O160    O    0.24718   0.97969   0.63734   1.000
    O161    O    0.74716   0.47968   0.63734   1.000
    O162    O    0.74717   0.97969   0.63734   1.000
    O163    O    0.37456   0.07560   0.61349   1.000
    O164    O    0.37456   0.57561   0.61349   1.000
    O165    O    0.87455   0.07560   0.61349   1.000
    O166    O    0.87455   0.57561   0.61349   1.000
    O167    O    0.35380   0.00842   0.50356   1.000
    C168    C    0.64163   0.71247   0.94646   1.000
    C169    C    0.43138   0.02415   0.82033   1.000
    C170    C    0.43139   0.52416   0.82033   1.000
    C171    C    0.93137   0.02415   0.82033   1.000
    C172    C    0.93137   0.52416   0.82033   1.000
    C173    C    0.44947   0.12855   0.03297   1.000
    C174    C    0.44947   0.62856   0.03297   1.000
    C175    C    0.94946   0.12855   0.03297   1.000
    C176    C    0.94946   0.62856   0.03297   1.000
    C177    C    0.13680   0.03510   0.94242   1.000
    C178    C    0.13681   0.53510   0.94242   1.000
    C179    C    0.63679   0.03510   0.94242   1.000
    C180    C    0.63679   0.53510   0.94242   1.000
    C181    C    0.33059   0.16306   0.82827   1.000
    C182    C    0.33059   0.66307   0.82827   1.000
    C183    C    0.83057   0.16306   0.82827   1.000
    C184    C    0.83058   0.66307   0.82827   1.000
    C185    C    0.23656   0.00933   0.70691   1.000
    C186    C    0.23656   0.50934   0.70691   1.000
    C187    C    0.73654   0.00933   0.70691   1.000
    C188    C    0.73655   0.50934   0.70691   1.000
    C189    C    0.39167   0.03738   0.55358   1.000
    C190    C    0.39167   0.53739   0.55358   1.000
    C191    C    0.89166   0.03738   0.55358   1.000
    C192    C    0.89166   0.53739   0.55358   1.000
    C193    C    0.18136   0.22590   0.67968   1.000
    C194    C    0.18136   0.72590   0.67968   1.000
    C195    C    0.68134   0.22590   0.67968   1.000
    C196    C    0.68135   0.72590   0.67968   1.000
    C197    C    0.19947   0.12150   0.46706   1.000
    C198    C    0.19947   0.62151   0.46706   1.000
    C199    C    0.69946   0.12150   0.46706   1.000
    C200    C    0.69946   0.62151   0.46706   1.000
    C201    C    0.38674   0.21484   0.55754   1.000
    C202    C    0.38675   0.71485   0.55754   1.000
    C203    C    0.88673   0.21484   0.55754   1.000
    C204    C    0.88673   0.71485   0.55754   1.000
    O205    O    0.40479   0.40209   0.24605   1.000
    O206    O    0.40480   0.90210   0.24605   1.000
    O207    O    0.90478   0.40209   0.24605   1.000
    O208    O    0.90478   0.90210   0.24605   1.000
    O209    O    0.47530   0.40770   0.36406   1.000
    O210    O    0.47530   0.90771   0.36406   1.000
    O211    O    0.97529   0.40770   0.36406   1.000
    O212    O    0.97529   0.90771   0.36406   1.000
    O213    O    0.00905   0.31500   0.21486   1.000
    O214    O    0.00905   0.81500   0.21486   1.000
    O215    O    0.50904   0.31500   0.21486   1.000
    O216    O    0.50904   0.81500   0.21486   1.000
    O217    O    0.00280   0.22969   0.13730   1.000
    O218    O    0.00280   0.72970   0.13730   1.000
    O219    O    0.50279   0.22969   0.13730   1.000
    O220    O    0.50279   0.72970   0.13730   1.000
    O221    O    0.39622   0.75860   0.00342   1.000
    O222    O    0.89621   0.25860   0.00342   1.000
    O223    O    0.89621   0.75860   0.00342   1.000
    O224    O    0.04425   0.42501   0.19147   1.000
    O225    O    0.04425   0.92502   0.19147   1.000
    O226    O    0.54424   0.42501   0.19147   1.000
    O227    O    0.54424   0.92502   0.19147   1.000
    O228    O    0.05555   0.00981   0.11778   1.000
    O229    O    0.05555   0.50982   0.11778   1.000
    O230    O    0.55554   0.00981   0.11778   1.000
    O231    O    0.55554   0.50982   0.11778   1.000
    O232    O    0.01383   0.34308   0.02203   1.000
    O233    O    0.01383   0.84309   0.02203   1.000
    O234    O    0.51382   0.34308   0.02200   1.000
    O235    O    0.51382   0.84309   0.02203   1.000
    O236    O    0.05517   0.42531   0.96141   1.000
    O237    O    0.05517   0.92531   0.96141   1.000
    O238    O    0.55516   0.42531   0.96141   1.000
    O239    O    0.55516   0.92531   0.96141   1.000
    O240    O    0.42384   0.44803   0.06323   1.000
    O241    O    0.42385   0.94804   0.06323   1.000
    O242    O    0.92383   0.44803   0.06323   1.000
    O243    O    0.92383   0.94804   0.06323   1.000
    O244    O    0.31420   0.44464   0.09798   1.000
    O245    O    0.31420   0.94464   0.09798   1.000
    O246    O    0.81419   0.44464   0.09798   1.000
    O247    O    0.81419   0.94464   0.09798   1.000
    O248    O    0.15485   0.34792   0.25397   1.000
    O249    O    0.15485   0.84793   0.25397   1.000
    O250    O    0.65483   0.34792   0.25397   1.000
    O251    O    0.65484   0.84793   0.25397   1.000
    O252    O    0.22535   0.34234   0.13594   1.000
    O253    O    0.22535   0.84235   0.13594   1.000
    O254    O    0.72533   0.34234   0.13594   1.000
    O255    O    0.72534   0.84235   0.13594   1.000
    O256    O    0.25893   0.43502   0.28512   1.000
    O257    O    0.25893   0.93503   0.28512   1.000
    O258    O    0.75892   0.43502   0.28512   1.000
    O259    O    0.75892   0.93503   0.28512   1.000
    O260    O    0.25281   0.02032   0.36266   1.000
    O261    O    0.25282   0.52033   0.36266   1.000
    O262    O    0.75280   0.02032   0.36266   1.000
    O263    O    0.75280   0.52033   0.36266   1.000
    O264    O    0.12543   0.42441   0.38652   1.000
    O265    O    0.12543   0.92441   0.38652   1.000
    O266    O    0.62542   0.42441   0.38652   1.000
    O267    O    0.62542   0.92441   0.38652   1.000
    O268    O    0.14618   0.49159   0.49644   1.000
    O269    O    0.14619   0.99160   0.49644   1.000
    O270    O    0.64617   0.49159   0.49644   1.000
    O271    O    0.64617   0.99160   0.49644   1.000
    O272    O    0.29427   0.32500   0.30850   1.000
    O273    O    0.29428   0.82500   0.30850   1.000
    O274    O    0.79426   0.32500   0.30850   1.000
    O275    O    0.79426   0.82500   0.30850   1.000
    O276    O    0.30556   0.24017   0.38220   1.000
    O277    O    0.30556   0.74017   0.38220   1.000
    O278    O    0.80555   0.24017   0.38220   1.000
    O279    O    0.80555   0.74017   0.38220   1.000
    O280    O    0.26382   0.40693   0.47790   1.000
    O281    O    0.26383   0.90693   0.47790   1.000
    O282    O    0.76381   0.40693   0.47792   1.000
    O283    O    0.76382   0.90693   0.47790   1.000
    O284    O    0.30514   0.32465   0.53860   1.000
    O285    O    0.30514   0.82465   0.53860   1.000
    O286    O    0.80512   0.32465   0.53860   1.000
    O287    O    0.80513   0.82465   0.53860   1.000
    O288    O    0.17387   0.30203   0.43680   1.000
    O289    O    0.17388   0.80204   0.43680   1.000
    O290    O    0.67386   0.30203   0.43680   1.000
    O291    O    0.67386   0.80204   0.43680   1.000
    O292    O    0.06424   0.30542   0.40201   1.000
    O293    O    0.06424   0.80543   0.40201   1.000
    O294    O    0.56422   0.30542   0.40201   1.000
    O295    O    0.56423   0.80543   0.40201   1.000
    O296    O    0.09519   0.09791   0.75395   1.000
    O297    O    0.09520   0.59792   0.75395   1.000
    O298    O    0.59518   0.09791   0.75395   1.000
    O299    O    0.59518   0.59792   0.75395   1.000
    O300    O    0.02469   0.09231   0.63590   1.000
    O301    O    0.02469   0.59231   0.63594   1.000
    O302    O    0.52467   0.09231   0.63594   1.000
    O303    O    0.52468   0.59231   0.63594   1.000
    O304    O    0.49094   0.18501   0.78515   1.000
    O305    O    0.49094   0.68502   0.78515   1.000
    O306    O    0.99092   0.18501   0.78515   1.000
    O307    O    0.99093   0.68502   0.78515   1.000
    O308    O    0.49719   0.27032   0.86264   1.000
    O309    O    0.49719   0.77032   0.86264   1.000
    O310    O    0.99718   0.27032   0.86264   1.000
    O311    O    0.99718   0.77032   0.86264   1.000
    O312    O    0.12452   0.17434   0.88648   1.000
    O313    O    0.12453   0.67434   0.88648   1.000
    O314    O    0.62451   0.17434   0.88648   1.000
    O315    O    0.62452   0.67434   0.88648   1.000
    O316    O    0.10377   0.24141   0.99659   1.000
    O317    O    0.10377   0.74141   0.99659   1.000
    O318    O    0.60376   0.24141   0.99650   1.000
    O319    O    0.60376   0.74142   0.99659   1.000
    O320    O    0.45574   0.07500   0.80853   1.000
    O321    O    0.45574   0.57500   0.80853   1.000
    O322    O    0.95573   0.07500   0.80853   1.000
    O323    O    0.95573   0.57500   0.80853   1.000
    O324    O    0.44444   0.49020   0.88223   1.000
    O325    O    0.44444   0.99020   0.88223   1.000
    O326    O    0.94443   0.49020   0.88223   1.000
    O327    O    0.94443   0.99020   0.88223   1.000
    O328    O    0.48616   0.15693   0.97798   1.000
    O329    O    0.48616   0.65693   0.97798   1.000
    O330    O    0.98615   0.15693   0.97798   1.000
    O331    O    0.98615   0.65693   0.97798   1.000
    O332    O    0.44482   0.07470   0.03859   1.000
    O333    O    0.44482   0.57471   0.03859   1.000
    O334    O    0.94481   0.07470   0.03859   1.000
    O335    O    0.94481   0.57471   0.03859   1.000
    O336    O    0.07614   0.05198   0.93677   1.000
    O337    O    0.07615   0.55198   0.93677   1.000
    O338    O    0.57613   0.05198   0.93677   1.000
    O339    O    0.57614   0.55198   0.93677   1.000
    O340    O    0.18579   0.05537   0.90202   1.000
    O341    O    0.18579   0.55538   0.90202   1.000
    O342    O    0.68578   0.05537   0.90202   1.000
    O343    O    0.68578   0.55538   0.90202   1.000
    O344    O    0.34514   0.15209   0.74603   1.000
    O345    O    0.34514   0.65209   0.74603   1.000
    O346    O    0.84513   0.15209   0.74603   1.000
    O347    O    0.84513   0.65209   0.74603   1.000
    O348    O    0.27464   0.15767   0.86407   1.000
    O349    O    0.27464   0.65768   0.86407   1.000
    O350    O    0.77463   0.15767   0.86400   1.000
    O351    O    0.77463   0.65767   0.86407   1.000
    O352    O    0.24106   0.06498   0.71488   1.000
    O353    O    0.24106   0.56499   0.71488   1.000
    O354    O    0.74105   0.06498   0.71488   1.000
    O355    O    0.74105   0.56499   0.71488   1.000
    O356    O    0.24717   0.47968   0.63734   1.000
    O357    O    0.35381   0.50842   0.50356   1.000
    O358    O    0.85379   0.00842   0.50356   1.000
    O359    O    0.85380   0.50842   0.50356   1.000
    O360    O    0.20571   0.17501   0.69148   1.000
    O361    O    0.20572   0.67502   0.69148   1.000
    O362    O    0.70570   0.17501   0.69148   1.000
    O363    O    0.70571   0.67502   0.69148   1.000
    O364    O    0.19443   0.25984   0.61780   1.000
    O365    O    0.19443   0.75985   0.61780   1.000
    O366    O    0.69442   0.25984   0.61780   1.000
    O367    O    0.69442   0.75985   0.61780   1.000
    O368    O    0.23616   0.09308   0.52208   1.000
    O369    O    0.23617   0.59309   0.52208   1.000
    O370    O    0.73615   0.09308   0.52208   1.000
    O371    O    0.73615   0.59309   0.52208   1.000
    O372    O    0.19485   0.17536   0.46140   1.000
    O373    O    0.19485   0.67537   0.46140   1.000
    O374    O    0.69484   0.17536   0.46140   1.000
    O375    O    0.69484   0.67537   0.46140   1.000
    O376    O    0.32611   0.19798   0.56320   1.000
    O377    O    0.32612   0.69798   0.56320   1.000
    O378    O    0.82610   0.19798   0.56320   1.000
    O379    O    0.82611   0.69798   0.56320   1.000
    O380    O    0.43575   0.19459   0.59799   1.000
    O381    O    0.43576   0.69459   0.59799   1.000
    O382    O    0.93574   0.19459   0.59799   1.000
    O383    O    0.93574   0.69459   0.59799   1.000
loop_
    _geom_bond_atom_site_label_1
    _geom_bond_atom_site_label_2
    _geom_bond_distance
    _geom_bond_site_symmetry_2
    _ccdc_geom_bond_type
    O223   C116      1.25235      .   S
    O222   C115      1.25271      .   S
    O221   C114      1.25270      .   S
    O88    C113      1.25236      .   S
    H21    C125      1.10207      .   S
    H22    C128      1.10186  1_545   S
    H23    C127      1.10205      .   S
    H20    C126      1.10186  1_545   S
    O234   C123      1.29394  1_554   S
    O235   C124      1.29424  1_554   S
    O233   C122      1.29425  1_554   S
    O232   C121      1.29424  1_554   S
    C173   O332      1.24806      .   S
    C173   H68       1.10258      .   S
    C173   O328      1.29417  1_554   S
    C174   O333      1.24806      .   S
    C174   H69       1.10213      .   S
    C174   O329      1.29416  1_554   S
    C175   O334      1.24806      .   S
    C175   H70       1.10265      .   S
    C175   O330      1.29415  1_554   S
    C176   O335      1.24806      .   S
    C176   H71       1.10265      .   S
    C176   O331      1.29416  1_554   S
    H10    C115      1.10576      .   S
    H9     C114      1.10576      .   S
    H11    C116      1.10574      .   S
    H8     C113      1.10574      .   S
    C116   O87       1.28930      .   S
    C113   O84       1.28950      .   S
    C115   O86       1.28886      .   S
    C114   O85       1.28888      .   S
    C128   O243      1.28907      .   S
    C128   O247      1.25496      .   S
    C127   O242      1.28905      .   S
    C127   O246      1.25496      .   S
    C126   O241      1.28906      .   S
    C126   O245      1.25497      .   S
    C125   O240      1.28907      .   S
    C125   O244      1.25496      .   S
    O231   C119      1.25132      .   S
    O230   C120      1.25117  1_545   S
    O229   C117      1.25133      .   S
    O228   C118      1.25118  1_545   S
    H27    C132      1.10388      .   S
    H25    C130      1.10389      .   S
    H24    C129      1.10389      .   S
    H26    C131      1.10318      .   S
    O252   C129      1.25789      .   S
    O253   C130      1.25789      .   S
    O254   C131      1.25791      .   S
    O255   C132      1.25789      .   S
    O219   C111      1.25109      .   S
    O220   C112      1.25110      .   S
    O218   C110      1.25110      .   S
    O217   C109      1.25110      .   S
    C131   O250      1.28401      .   S
    C132   O251      1.28401      .   S
    C129   O248      1.28401      .   S
    C130   O249      1.28401      .   S
    C120   O227      1.28579      .   S
    C120   H15       1.10731      .   S
    C119   O226      1.28579      .   S
    C119   H14       1.10731      .   S
    C118   O225      1.28579      .   S
    C118   H13       1.10729      .   S
    C117   O224      1.28579      .   S
    C117   H12       1.10729      .   S
    C109   O213      1.28760      .   S
    C109   H4        1.10569      .   S
    C110   O214      1.28761      .   S
    C110   H5        1.10571      .   S
    C111   O215      1.28760      .   S
    C111   H6        1.10569      .   S
    C112   O216      1.28760      .   S
    C112   H7        1.10569      .   S
    H30    C136      1.10559  1_545   S
    H29    C133      1.10577      .   S
    H28    C134      1.10560  1_545   S
    H31    C135      1.10452      .   S
    O208   C108      1.28355      .   S
    O207   C107      1.28354      .   S
    O206   C106      1.28355      .   S
    O205   C105      1.28355      .   S
    H37    C142      1.10732      .   S
    H38    C143      1.10730      .   S
    H39    C144      1.10732      .   S
    H36    C141      1.10731      .   S
    O258   C135      1.28746      .   S
    O257   C134      1.28756      .   S
    O259   C136      1.28756      .   S
    O256   C133      1.28756      .   S
    C135   O263      1.25144      .   S
    C136   O262      1.25021  1_565   S
    C134   O260      1.25021  1_565   S
    C133   O261      1.25034      .   S
    O274   C143      1.28587      .   S
    O272   C141      1.28585      .   S
    O273   C142      1.28584      .   S
    O275   C144      1.28585      .   S
    C141   O276      1.25139      .   S
    C144   O279      1.25139      .   S
    C143   O278      1.25137      .   S
    C142   O277      1.25139      .   S
    C105   O209      1.25817      .   S
    C105   H0        1.10345      .   S
    C106   O210      1.25817      .   S
    C106   H1        1.10302      .   S
    C107   O211      1.25817      .   S
    C107   H2        1.10301      .   S
    C108   O212      1.25817      .   S
    C108   H3        1.10353      .   S
    O264   C137      1.28912      .   S
    O265   C138      1.28910      .   S
    O266   C139      1.28912      .   S
    O267   C140      1.28912      .   S
    O292   C149      1.25498      .   S
    O293   C150      1.25498      .   S
    O294   C151      1.25497      .   S
    O295   C152      1.25498      .   S
    H99    C199      1.10261      .   S
    H98    C198      1.10261      .   S
    H100   C200      1.10261      .   S
    H97    C197      1.10262      .   S
    O290   C151      1.28906      .   S
    O289   C150      1.28906      .   S
    O288   C149      1.28906      .   S
    O291   C152      1.28906      .   S
    C152   H47       1.10200      .   S
    C151   H46       1.10200      .   S
    C150   H45       1.10200      .   S
    C149   H44       1.10200      .   S
    C139   H34       1.10581      .   S
    C139   O270      1.25280      .   S
    C138   H33       1.10581      .   S
    C138   O269      1.25281      .   S
    C140   H35       1.10581      .   S
    C140   O271      1.25280      .   S
    C137   H32       1.10581      .   S
    C137   O268      1.25281      .   S
    O372   C197      1.24804      .   S
    O375   C200      1.24804      .   S
    O374   C199      1.24804      .   S
    O373   C198      1.24804      .   S
    C197   O368      1.29439      .   S
    C198   O369      1.29439      .   S
    C199   O370      1.29438      .   S
    C200   O371      1.29439      .   S
    O281   C146      1.29460      .   S
    O280   C145      1.29460      .   S
    O283   C148      1.29460      .   S
    O282   C147      1.29440      .   S
    O167   C189      1.25281      .   S
    O357   C190      1.25281      .   S
    O358   C191      1.25281      .   S
    O359   C192      1.25281      .   S
    H101   C201      1.10255      .   S
    H102   C202      1.10256      .   S
    H104   C204      1.10200      .   S
    H103   C203      1.10200      .   S
    C148   O287      1.24801      .   S
    C148   H43       1.10264      .   S
    C147   O286      1.24801      .   S
    C147   H42       1.10264      .   S
    C145   O284      1.24801      .   S
    C145   H40       1.10264      .   S
    C146   O285      1.24801      .   S
    C146   H41       1.10264      .   S
    H92    C192      1.10581      .   S
    H91    C191      1.10581      .   S
    H90    C190      1.10581      .   S
    H89    C189      1.10583      .   S
    C192   O166      1.28923      .   S
    C191   O165      1.28922      .   S
    C190   O164      1.28921      .   S
    C189   O163      1.28919      .   S
    C203   O378      1.28904      .   S
    C203   O382      1.25492      .   S
    C204   O379      1.28906      .   S
    C204   O383      1.25492      .   S
    C202   O377      1.28906      .   S
    C202   O381      1.25490      .   S
    C201   O376      1.28906      .   S
    C201   O380      1.25490      .   S
    O367   C196      1.25138      .   S
    O366   C195      1.25138      .   S
    O365   C194      1.25137      .   S
    O364   C193      1.25138      .   S
    H51    C156      1.10344      .   S
    H50    C155      1.10344      .   S
    H49    C154      1.10343      .   S
    H48    C153      1.10345      .   S
    O300   C153      1.25843      .   S
    O301   C154      1.25817      .   S
    O302   C155      1.25817      .   S
    O303   C156      1.25817      .   S
    O356   C186      1.25034      .   S
    O162   C187      1.25021  1_565   S
    O161   C188      1.25034      .   S
    O160   C185      1.25021  1_565   S
    C153   O296      1.28354      .   S
    C154   O297      1.28354      .   S
    C155   O298      1.28354      .   S
    C156   O299      1.28355      .   S
    C196   O363      1.28580      .   S
    C196   H96       1.10731      .   S
    C195   O362      1.28580      .   S
    C195   H95       1.10731      .   S
    C194   O361      1.28580      .   S
    C194   H94       1.10732      .   S
    C193   O360      1.28580      .   S
    C193   H93       1.10730      .   S
    C188   O355      1.28758      .   S
    C188   H82       1.10576      .   S
    C186   O353      1.28758      .   S
    C186   H80       1.10576      .   S
    C185   O352      1.28758      .   S
    C185   H81       1.10559  1_545   S
    C187   O354      1.28758      .   S
    C187   H83       1.10559  1_545   S
    H59    C52       1.10571      .   S
    H58    C159      1.10569      .   S
    H56    C157      1.10570      .   S
    H57    C158      1.10571      .   S
    O344   C181      1.28358      .   S
    O346   C183      1.28358      .   S
    O345   C182      1.28359      .   S
    O347   C184      1.28358      .   S
    H64    C169      1.10727      .   S
    H65    C170      1.10729      .   S
    H66    C171      1.10730      .   S
    H67    C172      1.10729      .   S
    O304   C157      1.28757      .   S
    O305   C158      1.28757      .   S
    O306   C159      1.28757      .   S
    O307   C52       1.28757      .   S
    C157   O308      1.25037      .   S
    C52    O311      1.25037      .   S
    C159   O310      1.25036      .   S
    C158   O309      1.25037      .   S
    O323   C172      1.28579      .   S
    O322   C171      1.28577      .   S
    O321   C170      1.28579      .   S
    O320   C169      1.28579      .   S
    C172   O326      1.25144      .   S
    C171   O327      1.25130  1_545   S
    C170   O324      1.25144      .   S
    C169   O325      1.25128  1_545   S
    C183   O350      1.25770      .   S
    C183   H78       1.10346      .   S
    C181   O348      1.25817      .   S
    C181   H76       1.10345      .   S
    C182   O349      1.25815      .   S
    C182   H77       1.10346      .   S
    C184   O351      1.25815      .   S
    C184   H79       1.10345      .   S
    O315   C168      1.28908      .   S
    O314   C55       1.28910      .   S
    O313   C54       1.28908      .   S
    O312   C53       1.28908      .   S
    O342   C179      1.25496      .   S
    O341   C178      1.25496      .   S
    O343   C180      1.25496      .   S
    O340   C177      1.25496      .   S
    H18    C123      1.10265      .   S
    H16    C121      1.10257      .   S
    H17    C122      1.10258      .   S
    H19    C124      1.10257      .   S
    O338   C179      1.28907      .   S
    O339   C180      1.28907      .   S
    O337   C178      1.28907      .   S
    O336   C177      1.28907      .   S
    C180   H74       1.10205      .   S
    C179   H75       1.10186  1_545   S
    C178   H72       1.10205      .   S
    C177   H73       1.10186  1_545   S
    C168   H63       1.10579      .   S
    C168   O319      1.25278      .   S
    C55    H62       1.10578      .   S
    C55    O318      1.25200      .   S
    C54    H61       1.10576      .   S
    C54    O317      1.25278      .   S
    C53    H60       1.10578      .   S
    C53    O316      1.25278      .   S
    O236   C121      1.24808      .   S
    O237   C122      1.24806      .   S
    O238   C123      1.24808      .   S
    O239   C124      1.24808      .   S
