# CIF file generated by openbabel 2.4.90, see http://openbabel.sf.net
data_I
_chemical_name_common ''
_cell_length_a 18.42
_cell_length_b 18.43
_cell_length_c 18.426
_cell_angle_alpha 60.177
_cell_angle_beta 60.213
_cell_angle_gamma 60.202
_space_group_name_H-M_alt 'P 1'
_space_group_name_Hall 'P 1'
loop_
    _symmetry_equiv_pos_as_xyz
    x,y,z
loop_
    _atom_site_label
    _atom_site_type_symbol
    _atom_site_fract_x
    _atom_site_fract_y
    _atom_site_fract_z
    _atom_site_occupancy
    H0      H    0.54978   0.06813   0.33572   1.000
    H1      H    0.54681   0.83572   0.56816   1.000
    H2      H    0.54799   0.06753   0.04940   1.000
    H3      H    0.54813   0.83576   0.04680   1.000
    H4      H    0.06817   0.83573   0.04820   1.000
    H5      H    0.93188   0.45024   0.66420   1.000
    H6      H    0.16430   0.45299   0.43195   1.000
    H7      H    0.93218   0.45207   0.95072   1.000
    H8      H    0.16429   0.45184   0.95308   1.000
    H9      H    0.16431   0.93197   0.95160   1.000
    H10     H    0.45021   0.93186   0.66427   1.000
    H11     H    0.45318   0.16427   0.43183   1.000
    H12     H    0.45200   0.93246   0.95052   1.000
    H13     H    0.45186   0.16423   0.95319   1.000
    H14     H    0.93182   0.16426   0.95177   1.000
    H15     H    0.06810   0.54975   0.33573   1.000
    H16     H    0.83568   0.54700   0.56804   1.000
    H17     H    0.06781   0.54792   0.04927   1.000
    H18     H    0.83570   0.54815   0.04691   1.000
    H19     H    0.83568   0.06802   0.04839   1.000
    H20     H    0.54744   0.54745   0.33574   1.000
    H21     H    0.54865   0.54881   0.56754   1.000
    H22     H    0.45254   0.45254   0.66425   1.000
    H23     H    0.45133   0.45118   0.43245   1.000
    C24     C    0.55386   0.94638   0.44640   1.000
    C25     C    0.52758   0.03904   0.40760   1.000
    C26     C    0.52590   0.90769   0.53906   1.000
    C27     C    0.55360   0.94609   0.05367   1.000
    C28     C    0.52658   0.03872   0.02741   1.000
    C29     C    0.52666   0.90771   0.02591   1.000
    C30     C    0.03907   0.90769   0.02670   1.000
    C31     C    0.05363   0.44609   0.55365   1.000
    C32     C    0.96095   0.47242   0.59230   1.000
    C33     C    0.09233   0.47396   0.46000   1.000
    C34     C    0.05379   0.44642   0.94637   1.000
    C35     C    0.96112   0.47346   0.97268   1.000
    C36     C    0.09232   0.47333   0.97400   1.000
    C37     C    0.09233   0.96100   0.97300   1.000
    C38     C    0.44613   0.05361   0.55359   1.000
    C39     C    0.47241   0.96095   0.59231   1.000
    C40     C    0.47408   0.09230   0.46093   1.000
    C41     C    0.44640   0.05390   0.94631   1.000
    C42     C    0.47340   0.96127   0.97258   1.000
    C43     C    0.47332   0.09228   0.97408   1.000
    C44     C    0.96091   0.09230   0.97330   1.000
    C45     C    0.94635   0.55392   0.44630   1.000
    C46     C    0.03904   0.52756   0.40769   1.000
    C47     C    0.90766   0.52603   0.53900   1.000
    C48     C    0.94619   0.55358   0.05361   1.000
    C49     C    0.03887   0.52653   0.02732   1.000
    C50     C    0.90766   0.52665   0.02599   1.000
    C51     C    0.90766   0.03899   0.02680   1.000
    C52     C    0.55359   0.55366   0.44608   1.000
    C53     C    0.52627   0.52628   0.40770   1.000
    C54     C    0.52694   0.52704   0.53872   1.000
    C55     C    0.94639   0.94633   0.05384   1.000
    C56     C    0.44640   0.44634   0.55391   1.000
    C57     C    0.47371   0.47371   0.59230   1.000
    C58     C    0.47304   0.47295   0.46127   1.000
    C59     C    0.05360   0.05366   0.94614   1.000
loop_
    _geom_bond_atom_site_label_1
    _geom_bond_atom_site_label_2
    _geom_bond_distance
    _geom_bond_site_symmetry_2
    _ccdc_geom_bond_type
    C29    H3        1.08864      .   S
    C29    C27       1.40321      .   S
    C29    C42       1.39026  1_554   S
    C50    H18       1.08863      .   S
    C50    C48       1.40321      .   S
    C50    C35       1.39039  1_554   S
    C30    H4        1.08861      .   S
    C30    C55       1.40345  1_455   S
    C30    C37       1.39040  1_554   S
    C51    H19       1.08860      .   S
    C51    C55       1.40332  1_545   S
    C51    C44       1.39037  1_554   S
    C49    H17       1.08849      .   S
    C49    C48       1.40358  1_455   S
    C49    C36       1.39050  1_554   S
    C28    H2        1.08750      .   S
    C28    C27       1.40340  1_545   S
    C28    C43       1.39026  1_554   S
    H0     C25       1.08736      .   S
    H15    C46       1.08855      .   S
    H20    C53       1.08873      .   S
    C25    C24       1.40350  1_545   S
    C25    C40       1.39151      .   S
    C46    C45       1.40341  1_455   S
    C46    C33       1.37752      .   S
    C53    C52       1.40305      .   S
    C53    C58       1.39037      .   S
    H11    C40       1.08861      .   S
    H6     C33       1.08760      .   S
    H23    C58       1.08857      .   S
    C52    C54       1.40334      .   S
    C45    C47       1.40394      .   S
    C24    C26       1.40327      .   S
    C33    C31       1.41767      .   S
    C40    C38       1.40327      .   S
    C58    C56       1.40334      .   S
    C54    H21       1.08857      .   S
    C54    C57       1.39037      .   S
    C47    H16       1.08860      .   S
    C47    C32       1.39029      .   S
    C26    H1        1.08861      .   S
    C26    C39       1.39047      .   S
    C38    C39       1.40339  1_545   S
    C31    C32       1.40346  1_455   S
    C56    C57       1.40319      .   S
    C32    H5        1.08767      .   S
    C57    H22       1.08857      .   S
    C39    H10       1.08852      .   S
    C59    C37       1.40332  1_545   S
    C59    C44       1.40347  1_455   S
    C41    C42       1.40343  1_545   S
    C41    C43       1.40310      .   S
    C34    C35       1.40358  1_455   S
    C34    C36       1.40320      .   S
    H12    C42       1.08848      .   S
    H7     C35       1.08861      .   S
    H9     C37       1.08858      .   S
    H14    C44       1.08861      .   S
    H8     C36       1.08863      .   S
    H13    C43       1.08865      .   S
