# CIF file generated by openbabel 2.4.90, see http://openbabel.sf.net
data_I
_chemical_name_common ''
_cell_length_a 18.42
_cell_length_b 18.43
_cell_length_c 18.426
_cell_angle_alpha 60.177
_cell_angle_beta 60.213
_cell_angle_gamma 60.202
_space_group_name_H-M_alt 'P 1'
_space_group_name_Hall 'P 1'
loop_
    _symmetry_equiv_pos_as_xyz
    x,y,z
loop_
    _atom_site_label
    _atom_site_type_symbol
    _atom_site_fract_x
    _atom_site_fract_y
    _atom_site_fract_z
    _atom_site_occupancy
    N0      N    0.99999   0.50000   0.49989   1.000
    N1      N    0.49999   0.49999   0.50000   1.000
    N2      N    0.49999   0.99999   0.99999   1.000
    N3      N    0.49999   1.00000   0.49999   1.000
    N4      N    0.99999   0.99999   0.99997   1.000
    N5      N    0.99999   0.50000   0.99999   1.000
    Zr6     Zr   0.24998   0.25002   0.74999   1.000
    O7      O    0.35443   0.35443   0.64566   1.000
    O8      O    0.14556   0.35434   0.64554   1.000
    O9      O    0.35434   0.14558   0.64555   1.000
    O10     O    0.35442   0.14567   0.85439   1.000
    O11     O    0.14555   0.14559   0.85435   1.000
    O12     O    0.14562   0.35446   0.85442   1.000
    Zr13    Zr   0.75000   0.74997   0.24998   1.000
    O14     O    0.64564   0.85441   0.35443   1.000
    O15     O    0.64556   0.64556   0.35432   1.000
    O16     O    0.64556   0.85432   0.14557   1.000
    O17     O    0.85442   0.64565   0.35437   1.000
    O18     O    0.85437   0.64553   0.14556   1.000
    O19     O    0.85443   0.85440   0.14562   1.000
loop_
    _geom_bond_atom_site_label_1
    _geom_bond_atom_site_label_2
    _geom_bond_distance
    _geom_bond_site_symmetry_2
    _ccdc_geom_bond_type
    Zr6    O7        2.72481      .   S
    N1     O7        3.79845      .   S
    Zr6    O8        2.72444      .   S
    N0     O8        3.79852  1_655   S
    Zr6    O9        2.72678      .   S
    N3     O9        3.80059  1_565   S
    Zr6    O10       2.72400      .   S
    N2     O10       3.79775  1_565   S
    Zr6    O11       2.72501      .   S
    N4     O11       3.79868  1_665   S
    Zr6    O12       2.72653      .   S
    N5     O12       3.80019  1_655   S
    Zr13   O14       2.72687      .   S
    N3     O14       3.80058      .   S
    Zr13   O15       2.72480      .   S
    N1     O15       3.79844      .   S
    Zr13   O16       2.72407      .   S
    N2     O16       3.79760  1_556   S
    Zr13   O17       2.72367      .   S
    N0     O17       3.79673      .   S
    Zr13   O18       2.72641      .   S
    N5     O18       3.80003  1_556   S
    Zr13   O19       2.72503      .   S
    N4     O19       3.79870  1_556   S
