# CIF file generated by openbabel 2.4.90, see http://openbabel.sf.net
data_I
_chemical_name_common ''
_cell_length_a 16.501
_cell_length_b 19.542
_cell_length_c 19.54
_cell_angle_alpha 90
_cell_angle_beta 89.994
_cell_angle_gamma 90.039
_space_group_name_H-M_alt 'P 1'
_space_group_name_Hall 'P 1'
loop_
    _symmetry_equiv_pos_as_xyz
    x,y,z
loop_
    _atom_site_label
    _atom_site_type_symbol
    _atom_site_fract_x
    _atom_site_fract_y
    _atom_site_fract_z
    _atom_site_occupancy
    H0      H    0.91556   0.76458   0.40815   1.000
    H1      H    0.67851   0.88672   0.21378   1.000
    H2      H    0.88151   0.01208   0.24371   1.000
    H3      H    0.67632   0.77088   0.35727   1.000
    H4      H    0.70756   0.00155   0.40120   1.000
    H5      H    0.91583   0.23545   0.59186   1.000
    H6      H    0.67840   0.11325   0.78614   1.000
    H7      H    0.88141   0.98807   0.75637   1.000
    H8      H    0.67651   0.22912   0.64274   1.000
    H9      H    0.70761   0.99835   0.59875   1.000
    H10     H    0.41565   0.09189   0.26452   1.000
    H11     H    0.17852   0.28613   0.38681   1.000
    H12     H    0.38156   0.25634   0.51200   1.000
    H13     H    0.17641   0.14270   0.27087   1.000
    H14     H    0.20759   0.09874   0.50161   1.000
    H15     H    0.41575   0.90821   0.73545   1.000
    H16     H    0.17840   0.71381   0.61331   1.000
    H17     H    0.38135   0.74370   0.48800   1.000
    H18     H    0.17638   0.85724   0.72911   1.000
    H19     H    0.20762   0.90128   0.49841   1.000
    H20     H    0.58440   0.73542   0.90816   1.000
    H21     H    0.82148   0.61328   0.71378   1.000
    H22     H    0.61851   0.48793   0.74373   1.000
    H23     H    0.82365   0.72912   0.85727   1.000
    H24     H    0.79243   0.49845   0.90126   1.000
    H25     H    0.58418   0.26454   0.09186   1.000
    H26     H    0.82156   0.38678   0.28614   1.000
    H27     H    0.61853   0.51193   0.25636   1.000
    H28     H    0.82347   0.27086   0.14272   1.000
    H29     H    0.79239   0.50164   0.09875   1.000
    H30     H    0.08438   0.40811   0.76454   1.000
    H31     H    0.32146   0.21386   0.88681   1.000
    H32     H    0.11842   0.24368   0.01201   1.000
    H33     H    0.32360   0.35731   0.77087   1.000
    H34     H    0.29241   0.40126   0.00158   1.000
    H35     H    0.08420   0.59180   0.23545   1.000
    H36     H    0.32160   0.78617   0.11329   1.000
    H37     H    0.11864   0.75631   0.98803   1.000
    H38     H    0.32356   0.64275   0.22911   1.000
    H39     H    0.29235   0.59871   0.99840   1.000
    H40     H    0.08442   0.23542   0.59180   1.000
    H41     H    0.32147   0.11328   0.78623   1.000
    H42     H    0.11846   0.98792   0.75629   1.000
    H43     H    0.32366   0.22913   0.64274   1.000
    H44     H    0.29243   0.99845   0.59876   1.000
    H45     H    0.08416   0.76454   0.40814   1.000
    H46     H    0.32158   0.88676   0.21386   1.000
    H47     H    0.11857   0.01193   0.24364   1.000
    H48     H    0.32348   0.77087   0.35727   1.000
    H49     H    0.29239   0.00165   0.40126   1.000
    H50     H    0.58434   0.90812   0.73548   1.000
    H51     H    0.82146   0.71386   0.61320   1.000
    H52     H    0.61841   0.74367   0.48801   1.000
    H53     H    0.82357   0.85730   0.72915   1.000
    H54     H    0.79240   0.90126   0.49841   1.000
    H55     H    0.58424   0.09180   0.26456   1.000
    H56     H    0.82159   0.28619   0.38671   1.000
    H57     H    0.61863   0.25630   0.51201   1.000
    H58     H    0.82359   0.14276   0.27089   1.000
    H59     H    0.79237   0.09872   0.50160   1.000
    H60     H    0.41559   0.26459   0.09180   1.000
    H61     H    0.17850   0.38671   0.28620   1.000
    H62     H    0.38148   0.51207   0.25629   1.000
    H63     H    0.17633   0.27089   0.14274   1.000
    H64     H    0.20756   0.50155   0.09875   1.000
    H65     H    0.41581   0.73546   0.90813   1.000
    H66     H    0.17842   0.61322   0.71388   1.000
    H67     H    0.38144   0.48807   0.74364   1.000
    H68     H    0.17651   0.72913   0.85729   1.000
    H69     H    0.20760   0.49835   0.90127   1.000
    H70     H    0.91561   0.59189   0.23547   1.000
    H71     H    0.67853   0.78614   0.11320   1.000
    H72     H    0.88156   0.75633   0.98800   1.000
    H73     H    0.67638   0.64269   0.22913   1.000
    H74     H    0.70758   0.59874   0.99843   1.000
    H75     H    0.91579   0.40819   0.76456   1.000
    H76     H    0.67838   0.21384   0.88671   1.000
    H77     H    0.88134   0.24368   0.01198   1.000
    H78     H    0.67642   0.35724   0.77091   1.000
    H79     H    0.70764   0.40129   0.00161   1.000
    H80     H    0.00007   0.94295   0.31027   1.000
    H81     H    0.99992   0.05705   0.68975   1.000
    H82     H    0.50003   0.18974   0.44293   1.000
    H83     H    0.49996   0.81025   0.55708   1.000
    C84     C    0.00001   0.66384   0.10617   1.000
    C85     C    0.82298   0.77714   0.22288   1.000
    C86     C    0.82300   0.22289   0.77715   1.000
    C87     C    0.32299   0.27715   0.27711   1.000
    H88     H    0.49993   0.55705   0.81028   1.000
    H89     H    0.50006   0.44295   0.18974   1.000
    H90     H    0.99994   0.31027   0.94295   1.000
    H91     H    0.00004   0.68973   0.05707   1.000
    H92     H    0.87752   0.75522   0.24485   1.000
    H93     H    0.87758   0.24484   0.75523   1.000
    H94     H    0.37753   0.25523   0.25514   1.000
    H95     H    0.37756   0.74485   0.74470   1.000
    H96     H    0.62247   0.74477   0.74487   1.000
    H97     H    0.62243   0.25514   0.25520   1.000
    H98     H    0.12247   0.24478   0.75510   1.000
    H99     H    0.12242   0.75515   0.24479   1.000
    C100    C    0.95822   0.80125   0.38715   1.000
    C101    C    0.71955   0.84418   0.20557   1.000
    C102    C    0.83727   0.02930   0.28096   1.000
    C103    C    0.69151   0.79410   0.40602   1.000
    C104    C    0.74762   0.02243   0.36245   1.000
    C105    C    0.95840   0.19876   0.61286   1.000
    C106    C    0.71947   0.15581   0.79439   1.000
    C107    C    0.83722   0.97079   0.71909   1.000
    C108    C    0.69165   0.20589   0.59399   1.000
    C109    C    0.74764   0.97753   0.63757   1.000
    C110    C    0.45828   0.11287   0.30121   1.000
    C111    C    0.21955   0.29438   0.34423   1.000
    C112    C    0.33732   0.21907   0.52925   1.000
    C113    C    0.19159   0.09396   0.29409   1.000
    C114    C    0.24766   0.13755   0.52246   1.000
    C115    C    0.45834   0.88718   0.69878   1.000
    N116    N    0.43206   0.36025   0.14529   1.000
    N117    N    0.28537   0.33301   0.25193   1.000
    N118    N    0.29857   0.48395   0.17543   1.000
    N119    N    0.24848   0.34593   0.08939   1.000
    N120    N    0.43209   0.63978   0.85400   1.000
    C121    C    0.21947   0.70559   0.65584   1.000
    C122    C    0.33717   0.78096   0.47075   1.000
    C123    C    0.19156   0.90600   0.70589   1.000
    C124    C    0.24763   0.86246   0.47755   1.000
    C125    C    0.54175   0.69875   0.88716   1.000
    C126    C    0.78044   0.65582   0.70557   1.000
    C127    C    0.66274   0.47071   0.78098   1.000
    C128    C    0.80847   0.70590   0.90603   1.000
    C129    C    0.75238   0.47757   0.86246   1.000
    C130    C    0.54161   0.30123   0.11286   1.000
    C131    C    0.78050   0.34421   0.29439   1.000
    C132    C    0.66274   0.52921   0.21908   1.000
    C133    C    0.80833   0.29410   0.09397   1.000
    C134    C    0.75235   0.52247   0.13756   1.000
    C135    C    0.04174   0.38713   0.80123   1.000
    C136    C    0.28043   0.20561   0.84424   1.000
    C137    C    0.16266   0.28095   0.02926   1.000
    C138    C    0.30842   0.40605   0.79409   1.000
    C139    C    0.25234   0.36245   0.02244   1.000
    C140    C    0.04162   0.61283   0.19877   1.000
    C141    C    0.28052   0.79440   0.15583   1.000
    C142    C    0.16282   0.71905   0.97078   1.000
    C143    C    0.30839   0.59400   0.20589   1.000
    C144    C    0.25235   0.63753   0.97756   1.000
    C145    C    0.04177   0.19875   0.61286   1.000
    C146    C    0.28044   0.15582   0.79445   1.000
    C147    C    0.16270   0.97070   0.71904   1.000
    C148    C    0.30847   0.20591   0.59399   1.000
    C149    C    0.25237   0.97756   0.63756   1.000
    C150    C    0.04159   0.80123   0.38714   1.000
    C151    C    0.28051   0.84420   0.20561   1.000
    C152    C    0.16277   0.02921   0.28092   1.000
    C153    C    0.30833   0.79410   0.40602   1.000
    C154    C    0.25235   0.02247   0.36244   1.000
    C155    C    0.54171   0.88714   0.69879   1.000
    C156    C    0.78043   0.70561   0.65577   1.000
    C157    C    0.66266   0.78094   0.47076   1.000
    C158    C    0.80840   0.90604   0.70593   1.000
    C159    C    0.75233   0.86244   0.47755   1.000
    C160    C    0.54165   0.11283   0.30123   1.000
    C161    C    0.78051   0.29441   0.34417   1.000
    C162    C    0.66282   0.21904   0.52926   1.000
    C163    C    0.80842   0.09400   0.29411   1.000
    C164    C    0.75236   0.13754   0.52246   1.000
    C165    C    0.45823   0.30126   0.11284   1.000
    C166    C    0.21954   0.34418   0.29444   1.000
    C167    C    0.33725   0.52929   0.21903   1.000
    C168    C    0.19151   0.29411   0.09390   1.000
    C169    C    0.24761   0.52243   0.13755   1.000
    C170    C    0.45838   0.69877   0.88714   1.000
    C171    C    0.21948   0.65579   0.70563   1.000
    C172    C    0.33724   0.47079   0.78092   1.000
    C173    C    0.19165   0.70590   0.90604   1.000
    C174    C    0.24765   0.47753   0.86245   1.000
    C175    C    0.95825   0.61287   0.19878   1.000
    C176    C    0.71956   0.79439   0.15577   1.000
    C177    C    0.83732   0.71906   0.97076   1.000
    C178    C    0.69156   0.59395   0.20591   1.000
    C179    C    0.74765   0.63755   0.97757   1.000
    C180    C    0.95837   0.38717   0.80124   1.000
    C181    C    0.71946   0.20561   0.84418   1.000
    C182    C    0.83716   0.28095   0.02920   1.000
    C183    C    0.69159   0.40600   0.79413   1.000
    C184    C    0.74764   0.36247   0.02245   1.000
    C185    C    0.00001   0.89384   0.33616   1.000
    C186    C    0.99998   0.10616   0.66386   1.000
    C187    C    0.50001   0.16385   0.39383   1.000
    C188    C    0.49998   0.83615   0.60619   1.000
    C189    C    0.49998   0.60615   0.83617   1.000
    C190    C    0.50001   0.39384   0.16385   1.000
    C191    C    0.99998   0.33616   0.89384   1.000
    C192    C    0.32299   0.72289   0.72287   1.000
    C193    C    0.67700   0.72285   0.72290   1.000
    C194    C    0.67700   0.27710   0.27715   1.000
    C195    C    0.17700   0.22285   0.77713   1.000
    C196    C    0.17700   0.77710   0.22286   1.000
    N197    N    0.93205   0.86025   0.35470   1.000
    N198    N    0.78538   0.83301   0.24800   1.000
    N199    N    0.79857   0.98395   0.32457   1.000
    N200    N    0.74847   0.84592   0.41060   1.000
    N201    N    0.93210   0.13978   0.64532   1.000
    N202    N    0.78536   0.16701   0.75195   1.000
    N203    N    0.79856   0.01608   0.67547   1.000
    N204    N    0.74854   0.15407   0.58941   1.000
    N205    N    0.43207   0.14534   0.36020   1.000
    N206    N    0.28539   0.25194   0.33301   1.000
    N207    N    0.29862   0.17545   0.48394   1.000
    N208    N    0.24850   0.08941   0.34592   1.000
    N209    N    0.43207   0.85474   0.63978   1.000
    N210    N    0.28534   0.74808   0.66701   1.000
    N211    N    0.29853   0.82458   0.51607   1.000
    N212    N    0.24852   0.91062   0.65409   1.000
    N213    N    0.56793   0.63975   0.85472   1.000
    N214    N    0.71461   0.66699   0.74808   1.000
    N215    N    0.70142   0.51605   0.82459   1.000
    N216    N    0.75150   0.65407   0.91062   1.000
    N217    N    0.56790   0.36022   0.14530   1.000
    N218    N    0.71462   0.33300   0.25194   1.000
    N219    N    0.70142   0.48392   0.17540   1.000
    N220    N    0.75146   0.34593   0.08940   1.000
    N221    N    0.06793   0.35467   0.86022   1.000
    N222    N    0.21460   0.24806   0.83302   1.000
    N223    N    0.20137   0.32456   0.98396   1.000
    N224    N    0.25150   0.41059   0.84593   1.000
    N225    N    0.06790   0.64526   0.13978   1.000
    N226    N    0.21464   0.75191   0.16700   1.000
    N227    N    0.20145   0.67542   0.01606   1.000
    N228    N    0.25145   0.58938   0.15408   1.000
    N229    N    0.06794   0.13975   0.64531   1.000
    N230    N    0.21461   0.16699   0.75195   1.000
    N231    N    0.20141   0.01605   0.67544   1.000
    N232    N    0.25151   0.15408   0.58941   1.000
    N233    N    0.06789   0.86022   0.35400   1.000
    N234    N    0.21462   0.83299   0.24800   1.000
    N235    N    0.20143   0.98392   0.32454   1.000
    N236    N    0.25145   0.84593   0.41060   1.000
    N237    N    0.56792   0.85466   0.63981   1.000
    N238    N    0.71459   0.74806   0.66700   1.000
    N239    N    0.70137   0.82455   0.51607   1.000
    N240    N    0.75149   0.91059   0.65409   1.000
    N241    N    0.56791   0.14527   0.36023   1.000
    N242    N    0.71464   0.25192   0.33300   1.000
    N243    N    0.70145   0.17542   0.48390   1.000
    N244    N    0.75147   0.08938   0.34592   1.000
    N245    N    0.28537   0.66700   0.74807   1.000
    N246    N    0.29856   0.51608   0.82450   1.000
    N247    N    0.24853   0.65407   0.91061   1.000
    N248    N    0.93206   0.64533   0.13979   1.000
    N249    N    0.78539   0.75194   0.16699   1.000
    N250    N    0.79862   0.67544   0.01605   1.000
    N251    N    0.74849   0.58941   0.15408   1.000
    N252    N    0.93209   0.35473   0.86020   1.000
    N253    N    0.78535   0.24809   0.83301   1.000
    N254    N    0.79854   0.32458   0.98395   1.000
    N255    N    0.74854   0.41062   0.84590   1.000
loop_
    _geom_bond_atom_site_label_1
    _geom_bond_atom_site_label_2
    _geom_bond_distance
    _geom_bond_site_symmetry_2
    _ccdc_geom_bond_type
    H34    C139      1.08530      .   S
    H79    C184      1.08526      .   S
    H77    C182      1.08428      .   S
    H32    C137      1.08457      .   S
    N250   C177      1.38446  1_554   S
    N250   C179      1.34913  1_554   S
    N227   C142      1.38454  1_554   S
    N227   C144      1.34912  1_554   S
    C139   N119      1.34893      .   S
    C139   N223      1.34913  1_554   S
    C184   N220      1.34902      .   S
    C184   N254      1.34911  1_554   S
    C182   C133      1.37628      .   S
    C182   N254      1.38417  1_554   S
    C137   C168      1.37408      .   S
    C137   N223      1.38459  1_554   S
    H91    C84       1.08466      .   S
    N119   C168      1.38409      .   S
    N220   C133      1.38418      .   S
    H60    C165      1.08495      .   S
    H25    C130      1.08473      .   S
    C168   H63       1.08593      .   S
    C133   H28       1.08451      .   S
    H64    C169      1.08525      .   S
    H29    C134      1.08521      .   S
    C84    N225      1.34871      .   S
    C84    N248      1.34864  1_455   S
    C165   C130      1.37574      .   S
    C165   N116      1.38510      .   S
    C130   N217      1.38493      .   S
    H71    C176      1.08455      .   S
    H36    C141      1.08455      .   S
    C169   N228      1.34903      .   S
    C169   N118      1.34950      .   S
    C134   N251      1.34896      .   S
    C134   N219      1.34874      .   S
    N225   C140      1.38494      .   S
    N248   C175      1.38502      .   S
    N116   C190      1.34866      .   S
    N217   C190      1.34874      .   S
    N228   C143      1.38419      .   S
    N251   C178      1.38414      .   S
    C176   N249      1.38476      .   S
    C176   C101      1.37612      .   S
    C141   N226      1.38476      .   S
    C141   C151      1.37593      .   S
    C190   H89       1.08474      .   S
    N249   C85       1.34904      .   S
    N226   C196      1.34903      .   S
    N219   C132      1.38555      .   S
    N118   C167      1.38474      .   S
    C140   C175      1.37571  1_455   S
    C140   H35       1.08473      .   S
    C175   H70       1.08474      .   S
    C101   H1        1.08452      .   S
    C101   N198      1.38396      .   S
    C151   H46       1.08457      .   S
    C151   N234      1.38405      .   S
    C143   C167      1.37566      .   S
    C143   H38       1.08448      .   S
    C178   C132      1.37568      .   S
    C178   H73       1.08449      .   S
    C167   H62       1.08461      .   S
    C132   H27       1.08457      .   S
    C196   H99       1.08544      .   S
    C196   N234      1.34858      .   S
    C85    H92       1.08543      .   S
    C85    N198      1.34856      .   S
    H47    C152      1.08455      .   S
    H2     C102      1.08445      .   S
    N117   C87       1.34901      .   S
    N117   C166      1.38481      .   S
    N218   C194      1.34905      .   S
    N218   C131      1.38482      .   S
    H94    C87       1.08538      .   S
    H97    C194      1.08562      .   S
    H10    C110      1.08471      .   S
    H55    C160      1.08465      .   S
    H13    C113      1.08448      .   S
    H58    C163      1.08450      .   S
    C87    N206      1.34914      .   S
    C194   N242      1.34893      .   S
    C152   C113      1.37568      .   S
    C152   N235      1.38480  1_545   S
    C102   C163      1.37567      .   S
    C102   N199      1.38499  1_545   S
    H26    C131      1.08456      .   S
    H61    C166      1.08463      .   S
    C113   N208      1.38410      .   S
    C163   N244      1.38416      .   S
    C131   C161      1.37594      .   S
    C166   C111      1.37597      .   S
    C110   C160      1.37574      .   S
    C110   N205      1.38508      .   S
    C160   N241      1.38508      .   S
    H80    C185      1.08478      .   S
    N235   C154      1.34955  1_565   S
    N199   C104      1.34942  1_565   S
    N242   C161      1.38476      .   S
    N206   C111      1.38474      .   S
    C185   N233      1.34505      .   S
    C185   N197      1.34857  1_455   S
    C161   H56       1.08460      .   S
    C111   H11       1.08463      .   S
    N244   C104      1.34903      .   S
    N208   C154      1.34898      .   S
    N233   C150      1.39130      .   S
    N197   C100      1.38512      .   S
    H48    C153      1.08445      .   S
    H3     C103      1.08443      .   S
    N205   C187      1.34871      .   S
    N241   C187      1.34866      .   S
    C154   H49       1.08529      .   S
    C104   H4        1.08454      .   S
    C150   C100      1.37571  1_455   S
    C150   H45       1.08471      .   S
    C100   H0        1.08471      .   S
    C187   H82       1.08468      .   S
    C153   N236      1.38418      .   S
    C153   C122      1.37566      .   S
    C103   N200      1.38420      .   S
    C103   C157      1.37577      .   S
    N236   C124      1.34900      .   S
    N200   C159      1.34894      .   S
    C122   H17       1.08453      .   S
    C122   N211      1.38487      .   S
    C157   H52       1.08452      .   S
    C157   N239      1.38478      .   S
    C159   H54       1.08536      .   S
    C159   N239      1.34947      .   S
    C124   H19       1.08535      .   S
    C124   N211      1.34950      .   S
    N243   C164      1.34995      .   S
    N243   C162      1.38536      .   S
    N207   C114      1.34947      .   S
    N207   C112      1.38480      .   S
    H59    C164      1.08535      .   S
    H14    C114      1.08528      .   S
    H12    C112      1.08452      .   S
    H57    C162      1.08454      .   S
    C164   N204      1.34899      .   S
    C114   N232      1.34896      .   S
    C112   C148      1.37577      .   S
    C162   C108      1.37566      .   S
    H83    C188      1.08490      .   S
    N232   C148      1.38420      .   S
    N204   C108      1.38417      .   S
    H40    C145      1.08513      .   S
    H5     C105      1.08468      .   S
    C108   H8        1.08446      .   S
    C148   H43       1.08444      .   S
    H9     C109      1.08529      .   S
    H44    C149      1.08528      .   S
    C188   N209      1.34858      .   S
    C188   N237      1.34863      .   S
    C105   C145      1.37571  1_655   S
    C105   N201      1.38512      .   S
    C145   N229      1.38506      .   S
    H51    C156      1.08443      .   S
    H16    C121      1.08447      .   S
    C149   N212      1.34903      .   S
    C149   N231      1.34946  1_565   S
    C109   N240      1.34896      .   S
    C109   N203      1.34955  1_565   S
    N209   C115      1.38515      .   S
    N237   C155      1.38498      .   S
    N229   C186      1.34864  1_455   S
    N201   C186      1.34862      .   S
    N212   C123      1.38410      .   S
    N240   C158      1.38422      .   S
    C156   N238      1.38476      .   S
    C156   C126      1.37609      .   S
    C121   N210      1.38477      .   S
    C121   C171      1.37606      .   S
    C186   H81       1.08472      .   S
    N238   C193      1.34909      .   S
    N210   C192      1.34911      .   S
    N231   C147      1.38494  1_545   S
    N203   C107      1.38477  1_545   S
    C115   C155      1.37574      .   S
    C115   H15       1.08469      .   S
    C155   H50       1.08473      .   S
    C126   H21       1.08454      .   S
    C126   N214      1.38476      .   S
    C171   H66       1.08456      .   S
    C171   N245      1.38472      .   S
    C123   C147      1.37569      .   S
    C123   H18       1.08451      .   S
    C158   C107      1.37566      .   S
    C158   H53       1.08446      .   S
    C147   H42       1.08449      .   S
    C107   H7        1.08453      .   S
    C192   H95       1.08471      .   S
    C192   N245      1.34896      .   S
    C193   H96       1.08536      .   S
    C193   N214      1.34904      .   S
    H67    C172      1.08454      .   S
    H22    C127      1.08449      .   S
    N230   C195      1.34900      .   S
    N230   C146      1.38478      .   S
    N202   C86       1.34897      .   S
    N202   C106      1.38471      .   S
    H98    C195      1.08588      .   S
    H93    C86       1.08538      .   S
    H30    C135      1.08472      .   S
    H75    C180      1.08472      .   S
    H33    C138      1.08445      .   S
    H78    C183      1.08449      .   S
    C195   N222      1.34904      .   S
    C86    N253      1.34909      .   S
    C172   C138      1.37567      .   S
    C172   N246      1.38427      .   S
    C127   C183      1.37570      .   S
    C127   N215      1.38487      .   S
    H6     C106      1.08455      .   S
    H41    C146      1.08455      .   S
    C138   N224      1.38420      .   S
    C183   N255      1.38365      .   S
    C106   C181      1.37606      .   S
    C146   C136      1.37598      .   S
    C135   C180      1.37571  1_455   S
    C135   N221      1.38501      .   S
    C180   N252      1.38443      .   S
    H88    C189      1.08481      .   S
    N246   C174      1.34989      .   S
    N215   C129      1.34942      .   S
    N253   C181      1.38477      .   S
    N222   C136      1.38475      .   S
    C189   N120      1.34504      .   S
    C189   N213      1.34863      .   S
    C181   H76       1.08447      .   S
    C136   H31       1.08455      .   S
    N255   C129      1.34915      .   S
    N224   C174      1.34896      .   S
    N120   C170      1.39130      .   S
    N213   C125      1.38510      .   S
    H23    C128      1.08456      .   S
    H68    C173      1.08450      .   S
    N252   C191      1.34895      .   S
    N221   C191      1.34865  1_455   S
    C174   H69       1.08527      .   S
    C129   H24       1.08526      .   S
    C170   C125      1.37574      .   S
    C170   H65       1.08472      .   S
    C125   H20       1.08468      .   S
    C191   H90       1.08482      .   S
    C128   N216      1.38419      .   S
    C128   C177      1.37569      .   S
    C173   N247      1.38418      .   S
    C173   C142      1.37575      .   S
    N247   C144      1.34901      .   S
    N216   C179      1.34894      .   S
    C177   H72       1.08451      .   S
    C142   H37       1.08447      .   S
    C144   H39       1.08525      .   S
    C179   H74       1.08530      .   S
