# CIF file generated by openbabel 2.4.90, see http://openbabel.sf.net
data_I
_chemical_name_common ''
_cell_length_a 16.501
_cell_length_b 19.542
_cell_length_c 19.54
_cell_angle_alpha 90
_cell_angle_beta 89.994
_cell_angle_gamma 90.039
_space_group_name_H-M_alt 'P 1'
_space_group_name_Hall 'P 1'
loop_
    _symmetry_equiv_pos_as_xyz
    x,y,z
loop_
    _atom_site_label
    _atom_site_type_symbol
    _atom_site_fract_x
    _atom_site_fract_y
    _atom_site_fract_z
    _atom_site_occupancy
    C0      C    0.81613   0.88324   0.33358   1.000
    C1      C    0.81613   0.11679   0.66644   1.000
    C2      C    0.31614   0.16645   0.38322   1.000
    C3      C    0.31612   0.83360   0.61679   1.000
    C4      C    0.68386   0.61676   0.83360   1.000
    C5      C    0.68386   0.38321   0.16643   1.000
    C6      C    0.18385   0.33356   0.88324   1.000
    C7      C    0.18387   0.66639   0.11678   1.000
    C8      C    0.18386   0.11676   0.66643   1.000
    C9      C    0.18386   0.88321   0.33357   1.000
    C10     C    0.68385   0.83355   0.61679   1.000
    C11     C    0.68387   0.16639   0.38320   1.000
    C12     C    0.31613   0.38324   0.16640   1.000
    C13     C    0.31613   0.61679   0.83358   1.000
    C14     C    0.81614   0.66644   0.11678   1.000
    C15     C    0.81612   0.33361   0.88323   1.000
    C16     C    0.91556   0.76458   0.40815   1.000
    C17     C    0.67851   0.88672   0.21378   1.000
    C18     C    0.88151   0.01208   0.24371   1.000
    C19     C    0.67632   0.77088   0.35727   1.000
    C20     C    0.70756   0.00155   0.40120   1.000
    C21     C    0.91583   0.23545   0.59186   1.000
    C22     C    0.67840   0.11325   0.78614   1.000
    C23     C    0.88141   0.98807   0.75637   1.000
    C24     C    0.67651   0.22912   0.64274   1.000
    C25     C    0.70761   0.99835   0.59875   1.000
    C26     C    0.41565   0.09189   0.26452   1.000
    C27     C    0.17852   0.28613   0.38681   1.000
    C28     C    0.38156   0.25634   0.51200   1.000
    C29     C    0.17641   0.14270   0.27087   1.000
    C30     C    0.20759   0.09874   0.50161   1.000
    C31     C    0.41575   0.90821   0.73545   1.000
    C32     C    0.17840   0.71381   0.61331   1.000
    C33     C    0.38135   0.74370   0.48800   1.000
    C34     C    0.17638   0.85724   0.72911   1.000
    C35     C    0.20762   0.90128   0.49841   1.000
    C36     C    0.58440   0.73542   0.90816   1.000
    C37     C    0.82148   0.61328   0.71378   1.000
    C38     C    0.61851   0.48793   0.74373   1.000
    C39     C    0.82365   0.72912   0.85727   1.000
    C40     C    0.79243   0.49845   0.90126   1.000
    C41     C    0.58418   0.26454   0.09186   1.000
    C42     C    0.82156   0.38678   0.28614   1.000
    C43     C    0.61853   0.51193   0.25636   1.000
    C44     C    0.82347   0.27086   0.14272   1.000
    C45     C    0.79239   0.50164   0.09875   1.000
    C46     C    0.08438   0.40811   0.76454   1.000
    C47     C    0.32146   0.21386   0.88681   1.000
    C48     C    0.11842   0.24368   0.01201   1.000
    C49     C    0.32360   0.35731   0.77087   1.000
    C50     C    0.29241   0.40126   0.00158   1.000
    C51     C    0.08420   0.59180   0.23545   1.000
    C52     C    0.32160   0.78617   0.11329   1.000
    C53     C    0.11864   0.75631   0.98803   1.000
    C54     C    0.32356   0.64275   0.22911   1.000
    C55     C    0.29235   0.59871   0.99840   1.000
    C56     C    0.08442   0.23542   0.59180   1.000
    C57     C    0.32147   0.11328   0.78623   1.000
    C58     C    0.11846   0.98792   0.75629   1.000
    C59     C    0.32366   0.22913   0.64274   1.000
    C60     C    0.29243   0.99845   0.59876   1.000
    C61     C    0.08416   0.76454   0.40814   1.000
    C62     C    0.32158   0.88676   0.21386   1.000
    C63     C    0.11857   0.01193   0.24364   1.000
    C64     C    0.32348   0.77087   0.35727   1.000
    C65     C    0.29239   0.00165   0.40126   1.000
    C66     C    0.58434   0.90812   0.73548   1.000
    C67     C    0.82146   0.71386   0.61320   1.000
    C68     C    0.61841   0.74367   0.48801   1.000
    C69     C    0.82357   0.85730   0.72915   1.000
    C70     C    0.79240   0.90126   0.49841   1.000
    C71     C    0.58424   0.09180   0.26456   1.000
    C72     C    0.82159   0.28619   0.38671   1.000
    C73     C    0.61863   0.25630   0.51201   1.000
    C74     C    0.82359   0.14276   0.27089   1.000
    C75     C    0.79237   0.09872   0.50160   1.000
    C76     C    0.41559   0.26459   0.09180   1.000
    C77     C    0.17850   0.38671   0.28620   1.000
    C78     C    0.38148   0.51207   0.25629   1.000
    C79     C    0.17633   0.27089   0.14274   1.000
    C80     C    0.20756   0.50155   0.09875   1.000
    C81     C    0.41581   0.73546   0.90813   1.000
    C82     C    0.17842   0.61322   0.71388   1.000
    C83     C    0.38144   0.48807   0.74364   1.000
    C84     C    0.17651   0.72913   0.85729   1.000
    C85     C    0.20760   0.49835   0.90127   1.000
    C86     C    0.91561   0.59189   0.23547   1.000
    C87     C    0.67853   0.78614   0.11320   1.000
    C88     C    0.88156   0.75633   0.98800   1.000
    C89     C    0.67638   0.64269   0.22913   1.000
    C90     C    0.70758   0.59874   0.99843   1.000
    C91     C    0.91579   0.40819   0.76456   1.000
    C92     C    0.67838   0.21384   0.88671   1.000
    C93     C    0.88134   0.24368   0.01198   1.000
    C94     C    0.67642   0.35724   0.77091   1.000
    C95     C    0.70764   0.40129   0.00161   1.000
    C96     C    0.00007   0.94295   0.31027   1.000
    C97     C    0.99992   0.05705   0.68975   1.000
    C98     C    0.50003   0.18974   0.44293   1.000
    C99     C    0.49996   0.81025   0.55708   1.000
    C100    C    0.49993   0.55705   0.81028   1.000
    C101    C    0.50006   0.44295   0.18974   1.000
    C102    C    0.99994   0.31027   0.94295   1.000
    C103    C    0.00004   0.68973   0.05707   1.000
    C104    C    0.87752   0.75522   0.24485   1.000
    C105    C    0.87758   0.24484   0.75523   1.000
    C106    C    0.37753   0.25523   0.25514   1.000
    C107    C    0.37756   0.74485   0.74470   1.000
    C108    C    0.62247   0.74477   0.74487   1.000
    C109    C    0.62243   0.25514   0.25520   1.000
    C110    C    0.12247   0.24478   0.75510   1.000
    C111    C    0.12242   0.75515   0.24479   1.000
    C112    C    0.95822   0.80125   0.38715   1.000
    C113    C    0.71955   0.84418   0.20557   1.000
    C114    C    0.83727   0.02930   0.28096   1.000
    C115    C    0.69151   0.79410   0.40602   1.000
    C116    C    0.74762   0.02243   0.36245   1.000
    C117    C    0.95840   0.19876   0.61286   1.000
    C118    C    0.71947   0.15581   0.79439   1.000
    C119    C    0.83722   0.97079   0.71909   1.000
    C120    C    0.69165   0.20589   0.59399   1.000
    C121    C    0.74764   0.97753   0.63757   1.000
    C122    C    0.45828   0.11287   0.30121   1.000
    C123    C    0.21955   0.29438   0.34423   1.000
    C124    C    0.33732   0.21907   0.52925   1.000
    C125    C    0.19159   0.09396   0.29409   1.000
    C126    C    0.24766   0.13755   0.52246   1.000
    C127    C    0.45834   0.88718   0.69878   1.000
    C128    C    0.21947   0.70559   0.65584   1.000
    C129    C    0.33717   0.78096   0.47075   1.000
    C130    C    0.19156   0.90600   0.70589   1.000
    C131    C    0.24763   0.86246   0.47755   1.000
    C132    C    0.54175   0.69875   0.88716   1.000
    C133    C    0.78044   0.65582   0.70557   1.000
    C134    C    0.66274   0.47071   0.78098   1.000
    C135    C    0.80847   0.70590   0.90603   1.000
    C136    C    0.75238   0.47757   0.86246   1.000
    C137    C    0.54161   0.30123   0.11286   1.000
    C138    C    0.78050   0.34421   0.29439   1.000
    C139    C    0.66274   0.52921   0.21908   1.000
    C140    C    0.80833   0.29410   0.09397   1.000
    C141    C    0.75235   0.52247   0.13756   1.000
    C142    C    0.04174   0.38713   0.80123   1.000
    C143    C    0.28043   0.20561   0.84424   1.000
    C144    C    0.16266   0.28095   0.02926   1.000
    C145    C    0.30842   0.40605   0.79409   1.000
    C146    C    0.25234   0.36245   0.02244   1.000
    C147    C    0.04162   0.61283   0.19877   1.000
    C148    C    0.28052   0.79440   0.15583   1.000
    C149    C    0.16282   0.71905   0.97078   1.000
    C150    C    0.30839   0.59400   0.20589   1.000
    C151    C    0.25235   0.63753   0.97756   1.000
    C152    C    0.04177   0.19875   0.61286   1.000
    C153    C    0.28044   0.15582   0.79445   1.000
    C154    C    0.16270   0.97070   0.71904   1.000
    C155    C    0.30847   0.20591   0.59399   1.000
    C156    C    0.25237   0.97756   0.63756   1.000
    C157    C    0.04159   0.80123   0.38714   1.000
    C158    C    0.28051   0.84420   0.20561   1.000
    C159    C    0.16277   0.02921   0.28092   1.000
    C160    C    0.30833   0.79410   0.40602   1.000
    C161    C    0.25235   0.02247   0.36244   1.000
    C162    C    0.54171   0.88714   0.69879   1.000
    C163    C    0.78043   0.70561   0.65577   1.000
    C164    C    0.66266   0.78094   0.47076   1.000
    C165    C    0.80840   0.90604   0.70593   1.000
    C166    C    0.75233   0.86244   0.47755   1.000
    C167    C    0.54165   0.11283   0.30123   1.000
    C168    C    0.78051   0.29441   0.34417   1.000
    C169    C    0.66282   0.21904   0.52926   1.000
    C170    C    0.80842   0.09400   0.29411   1.000
    C171    C    0.75236   0.13754   0.52246   1.000
    C172    C    0.45823   0.30126   0.11284   1.000
    C173    C    0.21954   0.34418   0.29444   1.000
    C174    C    0.33725   0.52929   0.21903   1.000
    C175    C    0.19151   0.29411   0.09390   1.000
    C176    C    0.24761   0.52243   0.13755   1.000
    C177    C    0.45838   0.69877   0.88714   1.000
    C178    C    0.21948   0.65579   0.70563   1.000
    C179    C    0.33724   0.47079   0.78092   1.000
    C180    C    0.19165   0.70590   0.90604   1.000
    C181    C    0.24765   0.47753   0.86245   1.000
    C182    C    0.95825   0.61287   0.19878   1.000
    C183    C    0.71956   0.79439   0.15577   1.000
    C184    C    0.83732   0.71906   0.97076   1.000
    C185    C    0.69156   0.59395   0.20591   1.000
    C186    C    0.74765   0.63755   0.97757   1.000
    C187    C    0.95837   0.38717   0.80124   1.000
    C188    C    0.71946   0.20561   0.84418   1.000
    C189    C    0.83716   0.28095   0.02920   1.000
    C190    C    0.69159   0.40600   0.79413   1.000
    C191    C    0.74764   0.36247   0.02245   1.000
    C192    C    0.00001   0.89384   0.33616   1.000
    C193    C    0.99998   0.10616   0.66386   1.000
    C194    C    0.50001   0.16385   0.39383   1.000
    C195    C    0.49998   0.83615   0.60619   1.000
    C196    C    0.49998   0.60615   0.83617   1.000
    C197    C    0.50001   0.39384   0.16385   1.000
    C198    C    0.99998   0.33616   0.89384   1.000
    C199    C    0.00001   0.66384   0.10617   1.000
    C200    C    0.82298   0.77714   0.22288   1.000
    C201    C    0.82300   0.22289   0.77715   1.000
    C202    C    0.32299   0.27715   0.27711   1.000
    C203    C    0.32299   0.72289   0.72287   1.000
    C204    C    0.67700   0.72285   0.72290   1.000
    C205    C    0.67700   0.27710   0.27715   1.000
    C206    C    0.17700   0.22285   0.77713   1.000
    C207    C    0.17700   0.77710   0.22286   1.000
    C208    C    0.93205   0.86025   0.35470   1.000
    C209    C    0.78538   0.83301   0.24800   1.000
    C210    C    0.79857   0.98395   0.32457   1.000
    C211    C    0.74847   0.84592   0.41060   1.000
    C212    C    0.93210   0.13978   0.64532   1.000
    C213    C    0.78536   0.16701   0.75195   1.000
    C214    C    0.79856   0.01608   0.67547   1.000
    C215    C    0.74854   0.15407   0.58941   1.000
    C216    C    0.43207   0.14534   0.36020   1.000
    C217    C    0.28539   0.25194   0.33301   1.000
    C218    C    0.29862   0.17545   0.48394   1.000
    C219    C    0.24850   0.08941   0.34592   1.000
    C220    C    0.43207   0.85474   0.63978   1.000
    C221    C    0.28534   0.74808   0.66701   1.000
    C222    C    0.29853   0.82458   0.51607   1.000
    C223    C    0.24852   0.91062   0.65409   1.000
    C224    C    0.56793   0.63975   0.85472   1.000
    C225    C    0.71461   0.66699   0.74808   1.000
    C226    C    0.70142   0.51605   0.82459   1.000
    C227    C    0.75150   0.65407   0.91062   1.000
    C228    C    0.56790   0.36022   0.14530   1.000
    C229    C    0.71462   0.33300   0.25194   1.000
    C230    C    0.70142   0.48392   0.17540   1.000
    C231    C    0.75146   0.34593   0.08940   1.000
    C232    C    0.06793   0.35467   0.86022   1.000
    C233    C    0.21460   0.24806   0.83302   1.000
    C234    C    0.20137   0.32456   0.98396   1.000
    C235    C    0.25150   0.41059   0.84593   1.000
    C236    C    0.06790   0.64526   0.13978   1.000
    C237    C    0.21464   0.75191   0.16700   1.000
    C238    C    0.20145   0.67542   0.01606   1.000
    C239    C    0.25145   0.58938   0.15408   1.000
    C240    C    0.06794   0.13975   0.64531   1.000
    C241    C    0.21461   0.16699   0.75195   1.000
    C242    C    0.20141   0.01605   0.67544   1.000
    C243    C    0.25151   0.15408   0.58941   1.000
    C244    C    0.06789   0.86022   0.35400   1.000
    C245    C    0.21462   0.83299   0.24800   1.000
    C246    C    0.20143   0.98392   0.32454   1.000
    C247    C    0.25145   0.84593   0.41060   1.000
    C248    C    0.56792   0.85466   0.63981   1.000
    C249    C    0.71459   0.74806   0.66700   1.000
    C250    C    0.70137   0.82455   0.51607   1.000
    C251    C    0.75149   0.91059   0.65409   1.000
    C252    C    0.56791   0.14527   0.36023   1.000
    C253    C    0.71464   0.25192   0.33300   1.000
    C254    C    0.70145   0.17542   0.48390   1.000
    C255    C    0.75147   0.08938   0.34592   1.000
    C256    C    0.43206   0.36025   0.14529   1.000
    C257    C    0.28537   0.33301   0.25193   1.000
    C258    C    0.29857   0.48395   0.17543   1.000
    C259    C    0.24848   0.34593   0.08939   1.000
    C260    C    0.43209   0.63978   0.85400   1.000
    C261    C    0.28537   0.66700   0.74807   1.000
    C262    C    0.29856   0.51608   0.82450   1.000
    C263    C    0.24853   0.65407   0.91061   1.000
    C264    C    0.93206   0.64533   0.13979   1.000
    C265    C    0.78539   0.75194   0.16699   1.000
    C266    C    0.79862   0.67544   0.01605   1.000
    C267    C    0.74849   0.58941   0.15408   1.000
    C268    C    0.93209   0.35473   0.86020   1.000
    C269    C    0.78535   0.24809   0.83301   1.000
    C270    C    0.79854   0.32458   0.98395   1.000
    C271    C    0.74854   0.41062   0.84590   1.000
    O272    O    0.27238   0.38185   0.01201   1.000
    O273    O    0.72764   0.38188   0.01203   1.000
    O274    O    0.85925   0.26231   0.02059   1.000
    O275    O    0.14054   0.26232   0.02064   1.000
    O276    O    0.80738   0.67094   0.06642   1.000
    O277    O    0.81797   0.69725   0.99340   1.000
    O278    O    0.77313   0.65650   0.99681   1.000
    O279    O    0.19266   0.67090   0.06642   1.000
    O280    O    0.18213   0.69723   0.99342   1.000
    O281    O    0.22690   0.65647   0.99681   1.000
    O282    O    0.25041   0.35419   0.05591   1.000
    O283    O    0.22686   0.34350   0.00320   1.000
    O284    O    0.74955   0.35420   0.05592   1.000
    O285    O    0.77309   0.34352   0.00320   1.000
    O286    O    0.82275   0.28752   0.06158   1.000
    O287    O    0.81785   0.30277   0.00657   1.000
    O288    O    0.17709   0.28753   0.06158   1.000
    O289    O    0.18202   0.30275   0.00661   1.000
    O290    O    0.00002   0.67679   0.08162   1.000
    O291    O    0.22000   0.32002   0.09164   1.000
    O292    O    0.28231   0.36459   0.12789   1.000
    O293    O    0.77990   0.32001   0.09168   1.000
    O294    O    0.71766   0.36457   0.12792   1.000
    O295    O    0.43691   0.28292   0.10232   1.000
    O296    O    0.56289   0.28289   0.10236   1.000
    O297    O    0.18392   0.28250   0.11832   1.000
    O298    O    0.81590   0.28248   0.11835   1.000
    O299    O    0.22759   0.51199   0.11815   1.000
    O300    O    0.77237   0.51205   0.11815   1.000
    O301    O    0.03395   0.65455   0.12298   1.000
    O302    O    0.96603   0.65459   0.12298   1.000
    O303    O    0.49992   0.30124   0.11285   1.000
    O304    O    0.44515   0.33076   0.12906   1.000
    O305    O    0.55475   0.33073   0.12908   1.000
    O306    O    0.69904   0.79026   0.13448   1.000
    O307    O    0.30106   0.79028   0.13456   1.000
    O308    O    0.87410   0.65589   0.12829   1.000
    O309    O    0.78231   0.62793   0.13543   1.000
    O310    O    0.80076   0.70919   0.14188   1.000
    O311    O    0.12588   0.65583   0.12828   1.000
    O312    O    0.21766   0.62789   0.13543   1.000
    O313    O    0.19925   0.70915   0.14189   1.000
    O314    O    0.24953   0.55590   0.14582   1.000
    O315    O    0.27309   0.50319   0.15649   1.000
    O316    O    0.75042   0.55594   0.14582   1.000
    O317    O    0.72688   0.50320   0.15648   1.000
    O318    O    0.05476   0.62905   0.16927   1.000
    O319    O    0.94515   0.62910   0.16928   1.000
    O320    O    0.46603   0.37705   0.15457   1.000
    O321    O    0.37409   0.37175   0.15584   1.000
    O322    O    0.53396   0.37703   0.15457   1.000
    O323    O    0.62588   0.37171   0.15587   1.000
    O324    O    0.27992   0.59169   0.17999   1.000
    O325    O    0.72002   0.59168   0.18000   1.000
    O326    O    0.75248   0.77316   0.16138   1.000
    O327    O    0.71956   0.81928   0.18067   1.000
    O328    O    0.24758   0.77315   0.16142   1.000
    O329    O    0.28052   0.81930   0.18072   1.000
    O330    O    0.50004   0.41840   0.17679   1.000
    O331    O    0.30735   0.43360   0.17091   1.000
    O332    O    0.30075   0.35813   0.20916   1.000
    O333    O    0.69264   0.43357   0.17092   1.000
    O334    O    0.69924   0.35810   0.20919   1.000
    O335    O    0.80419   0.76454   0.19493   1.000
    O336    O    0.19582   0.76451   0.19493   1.000
    O337    O    0.68208   0.50657   0.19724   1.000
    O338    O    0.31791   0.50662   0.19723   1.000
    O339    O    0.99993   0.61285   0.19877   1.000
    O340    O    0.06291   0.60231   0.21711   1.000
    O341    O    0.93693   0.60238   0.21712   1.000
    O342    O    0.69903   0.86545   0.20968   1.000
    O343    O    0.75246   0.83859   0.22678   1.000
    O344    O    0.30104   0.86548   0.20973   1.000
    O345    O    0.24757   0.83859   0.22680   1.000
    O346    O    0.32282   0.56164   0.21246   1.000
    O347    O    0.31598   0.61838   0.21750   1.000
    O348    O    0.67715   0.56158   0.21249   1.000
    O349    O    0.68397   0.61832   0.21752   1.000
    O350    O    0.35936   0.52068   0.23766   1.000
    O351    O    0.64063   0.52057   0.23772   1.000
    O352    O    0.14971   0.76613   0.23382   1.000
    O353    O    0.19581   0.80505   0.23543   1.000
    O354    O    0.85025   0.76618   0.23386   1.000
    O355    O    0.80418   0.80508   0.23544   1.000
    O356    O    0.14067   0.02057   0.26228   1.000
    O357    O    0.85939   0.02069   0.26233   1.000
    O358    O    0.80075   0.85812   0.29079   1.000
    O359    O    0.19924   0.85810   0.29078   1.000
    O360    O    0.30418   0.30508   0.26452   1.000
    O361    O    0.25246   0.33859   0.27318   1.000
    O362    O    0.69581   0.30505   0.26455   1.000
    O363    O    0.74756   0.33860   0.27316   1.000
    O364    O    0.35026   0.26619   0.26613   1.000
    O365    O    0.64972   0.26612   0.26617   1.000
    O366    O    0.43696   0.10238   0.28286   1.000
    O367    O    0.56295   0.10231   0.28290   1.000
    O368    O    0.18400   0.11833   0.28248   1.000
    O369    O    0.81601   0.11838   0.28250   1.000
    O370    O    0.30419   0.26455   0.30506   1.000
    O371    O    0.69582   0.26451   0.30507   1.000
    O372    O    0.17718   0.06158   0.28750   1.000
    O373    O    0.18210   0.00657   0.30273   1.000
    O374    O    0.82285   0.06165   0.28753   1.000
    O375    O    0.81792   0.00662   0.30276   1.000
    O376    O    0.80103   0.36550   0.29026   1.000
    O377    O    0.19902   0.36544   0.29032   1.000
    O378    O    0.22004   0.09168   0.32000   1.000
    O379    O    0.77994   0.09169   0.32001   1.000
    O380    O    0.78051   0.31931   0.31928   1.000
    O381    O    0.21955   0.31928   0.31933   1.000
    O382    O    0.49996   0.11285   0.30122   1.000
    O383    O    0.44517   0.12910   0.33070   1.000
    O384    O    0.55478   0.12905   0.33073   1.000
    O385    O    0.00004   0.91840   0.32321   1.000
    O386    O    0.19264   0.93356   0.32905   1.000
    O387    O    0.22689   0.00320   0.34349   1.000
    O388    O    0.80735   0.93360   0.32907   1.000
    O389    O    0.77310   0.00319   0.34351   1.000
    O390    O    0.74758   0.27316   0.33858   1.000
    O391    O    0.69926   0.20916   0.35810   1.000
    O392    O    0.25247   0.27316   0.33862   1.000
    O393    O    0.30077   0.20919   0.35812   1.000
    O394    O    0.12587   0.87171   0.34378   1.000
    O395    O    0.21765   0.86457   0.37208   1.000
    O396    O    0.87409   0.87174   0.34414   1.000
    O397    O    0.78230   0.86458   0.37209   1.000
    O398    O    0.03395   0.87703   0.34508   1.000
    O399    O    0.96603   0.87705   0.34543   1.000
    O400    O    0.80105   0.29030   0.36544   1.000
    O401    O    0.19904   0.29026   0.36552   1.000
    O402    O    0.74954   0.05591   0.35419   1.000
    O403    O    0.71767   0.12789   0.36456   1.000
    O404    O    0.25042   0.05594   0.35418   1.000
    O405    O    0.28232   0.12793   0.36457   1.000
    O406    O    0.05474   0.83073   0.37057   1.000
    O407    O    0.94513   0.83075   0.37092   1.000
    O408    O    0.31590   0.78249   0.38164   1.000
    O409    O    0.68391   0.78249   0.38164   1.000
    O410    O    0.37411   0.15589   0.37171   1.000
    O411    O    0.46604   0.15459   0.37701   1.000
    O412    O    0.62589   0.15583   0.37171   1.000
    O413    O    0.53396   0.15456   0.37703   1.000
    O414    O    0.27237   0.01206   0.38185   1.000
    O415    O    0.72759   0.01199   0.38182   1.000
    O416    O    0.69266   0.17091   0.43355   1.000
    O417    O    0.30738   0.17095   0.43358   1.000
    O418    O    0.99990   0.80124   0.38714   1.000
    O419    O    0.06287   0.78289   0.39764   1.000
    O420    O    0.93689   0.78291   0.39765   1.000
    O421    O    0.50002   0.17679   0.41838   1.000
    O422    O    0.27989   0.82001   0.40831   1.000
    O423    O    0.32275   0.78753   0.43839   1.000
    O424    O    0.71999   0.82001   0.40831   1.000
    O425    O    0.67708   0.78752   0.43839   1.000
    O426    O    0.24954   0.85419   0.44407   1.000
    O427    O    0.75040   0.85418   0.44407   1.000
    O428    O    0.35926   0.76233   0.47938   1.000
    O429    O    0.31785   0.80277   0.49341   1.000
    O430    O    0.64054   0.76231   0.47938   1.000
    O431    O    0.68201   0.80274   0.49341   1.000
    O432    O    0.77237   0.88185   0.48798   1.000
    O433    O    0.72685   0.84350   0.49681   1.000
    O434    O    0.22762   0.88187   0.48798   1.000
    O435    O    0.27308   0.84352   0.49681   1.000
    O436    O    0.72691   0.15648   0.50318   1.000
    O437    O    0.68214   0.19723   0.50658   1.000
    O438    O    0.27314   0.15650   0.50320   1.000
    O439    O    0.31797   0.19726   0.50660   1.000
    O440    O    0.77237   0.11813   0.51203   1.000
    O441    O    0.22762   0.11815   0.51204   1.000
    O442    O    0.35944   0.23770   0.52062   1.000
    O443    O    0.64072   0.23767   0.52063   1.000
    O444    O    0.69261   0.82905   0.56643   1.000
    O445    O    0.30733   0.82909   0.56643   1.000
    O446    O    0.75045   0.14580   0.55593   1.000
    O447    O    0.24959   0.14582   0.55593   1.000
    O448    O    0.32290   0.21249   0.56162   1.000
    O449    O    0.67724   0.21246   0.56162   1.000
    O450    O    0.49997   0.82320   0.58164   1.000
    O451    O    0.27999   0.17999   0.59170   1.000
    O452    O    0.21769   0.13542   0.62792   1.000
    O453    O    0.72010   0.17998   0.59170   1.000
    O454    O    0.78234   0.13543   0.62792   1.000
    O455    O    0.06310   0.21708   0.60233   1.000
    O456    O    0.93712   0.21711   0.60236   1.000
    O457    O    0.68408   0.21751   0.61836   1.000
    O458    O    0.31607   0.21752   0.61836   1.000
    O459    O    0.72762   0.98794   0.61816   1.000
    O460    O    0.27240   0.98801   0.61816   1.000
    O461    O    0.46603   0.84544   0.62298   1.000
    O462    O    0.53395   0.84541   0.62300   1.000
    O463    O    0.00009   0.19876   0.61286   1.000
    O464    O    0.94525   0.16927   0.62909   1.000
    O465    O    0.05486   0.16925   0.62908   1.000
    O466    O    0.80094   0.70973   0.63448   1.000
    O467    O    0.19893   0.70970   0.63458   1.000
    O468    O    0.37410   0.84417   0.62828   1.000
    O469    O    0.28232   0.87211   0.63544   1.000
    O470    O    0.30073   0.79084   0.64190   1.000
    O471    O    0.62588   0.84411   0.62830   1.000
    O472    O    0.71767   0.87207   0.63544   1.000
    O473    O    0.69922   0.79081   0.64189   1.000
    O474    O    0.25044   0.94409   0.64582   1.000
    O475    O    0.22689   0.99681   0.65650   1.000
    O476    O    0.74957   0.94406   0.64583   1.000
    O477    O    0.77310   0.99680   0.65652   1.000
    O478    O    0.44521   0.87096   0.66928   1.000
    O479    O    0.55482   0.87090   0.66930   1.000
    O480    O    0.03396   0.12295   0.65458   1.000
    O481    O    0.12590   0.12825   0.65587   1.000
    O482    O    0.96604   0.12297   0.65459   1.000
    O483    O    0.87411   0.12829   0.65588   1.000
    O484    O    0.22004   0.90831   0.67999   1.000
    O485    O    0.77995   0.90831   0.68001   1.000
    O486    O    0.74751   0.72683   0.66139   1.000
    O487    O    0.78043   0.68071   0.68067   1.000
    O488    O    0.25241   0.72684   0.66143   1.000
    O489    O    0.21948   0.68069   0.68073   1.000
    O490    O    0.99995   0.08161   0.67680   1.000
    O491    O    0.19264   0.06640   0.67093   1.000
    O492    O    0.19924   0.14187   0.70919   1.000
    O493    O    0.80735   0.06643   0.67095   1.000
    O494    O    0.80075   0.14190   0.70919   1.000
    O495    O    0.69580   0.73545   0.69495   1.000
    O496    O    0.30417   0.73549   0.69494   1.000
    O497    O    0.18206   0.99337   0.69724   1.000
    O498    O    0.81789   0.99343   0.69728   1.000
    O499    O    0.50002   0.88716   0.69878   1.000
    O500    O    0.43704   0.89770   0.71711   1.000
    O501    O    0.56303   0.89763   0.71713   1.000
    O502    O    0.80096   0.63455   0.70967   1.000
    O503    O    0.74753   0.66140   0.72682   1.000
    O504    O    0.19895   0.63451   0.70975   1.000
    O505    O    0.25243   0.66140   0.72685   1.000
    O506    O    0.17713   0.93835   0.71246   1.000
    O507    O    0.18397   0.88162   0.71750   1.000
    O508    O    0.82281   0.93842   0.71251   1.000
    O509    O    0.81599   0.88167   0.71754   1.000
    O510    O    0.14058   0.97931   0.73766   1.000
    O511    O    0.85932   0.97943   0.73773   1.000
    O512    O    0.35027   0.73387   0.73378   1.000
    O513    O    0.30418   0.69495   0.73547   1.000
    O514    O    0.64973   0.73381   0.73389   1.000
    O515    O    0.69581   0.69492   0.73549   1.000
    O516    O    0.35934   0.47943   0.76228   1.000
    O517    O    0.64062   0.47932   0.76236   1.000
    O518    O    0.30075   0.64190   0.79082   1.000
    O519    O    0.69924   0.64187   0.79084   1.000
    O520    O    0.19581   0.19492   0.76454   1.000
    O521    O    0.24752   0.16140   0.77320   1.000
    O522    O    0.80418   0.19495   0.76455   1.000
    O523    O    0.75242   0.16141   0.77317   1.000
    O524    O    0.14974   0.23382   0.76611   1.000
    O525    O    0.85029   0.23387   0.76619   1.000
    O526    O    0.06306   0.39762   0.78288   1.000
    O527    O    0.93708   0.39768   0.78290   1.000
    O528    O    0.31601   0.38168   0.78248   1.000
    O529    O    0.68401   0.38162   0.78252   1.000
    O530    O    0.19580   0.23546   0.80507   1.000
    O531    O    0.80417   0.23549   0.80508   1.000
    O532    O    0.32283   0.43842   0.78750   1.000
    O533    O    0.31790   0.49343   0.80271   1.000
    O534    O    0.67717   0.43836   0.78755   1.000
    O535    O    0.68208   0.49338   0.80279   1.000
    O536    O    0.69893   0.13453   0.79026   1.000
    O537    O    0.30096   0.13455   0.79034   1.000
    O538    O    0.27996   0.40832   0.82001   1.000
    O539    O    0.72007   0.40831   0.82001   1.000
    O540    O    0.71946   0.18071   0.81929   1.000
    O541    O    0.28043   0.18071   0.81934   1.000
    O542    O    0.00006   0.38715   0.80124   1.000
    O543    O    0.05484   0.37090   0.83072   1.000
    O544    O    0.94523   0.37095   0.83072   1.000
    O545    O    0.49995   0.58160   0.82322   1.000
    O546    O    0.30735   0.56643   0.82904   1.000
    O547    O    0.27310   0.49680   0.84347   1.000
    O548    O    0.69264   0.56640   0.82909   1.000
    O549    O    0.72690   0.49681   0.84353   1.000
    O550    O    0.75240   0.22685   0.83859   1.000
    O551    O    0.80073   0.29085   0.85812   1.000
    O552    O    0.24751   0.22684   0.83863   1.000
    O553    O    0.19922   0.29081   0.85813   1.000
    O554    O    0.37411   0.62829   0.84379   1.000
    O555    O    0.28233   0.63543   0.87209   1.000
    O556    O    0.62590   0.62825   0.84416   1.000
    O557    O    0.71768   0.63541   0.87211   1.000
    O558    O    0.46603   0.62297   0.84508   1.000
    O559    O    0.53395   0.62295   0.84545   1.000
    O560    O    0.69892   0.20972   0.86545   1.000
    O561    O    0.30094   0.20973   0.86552   1.000
    O562    O    0.75046   0.44410   0.85418   1.000
    O563    O    0.78233   0.37211   0.86456   1.000
    O564    O    0.24957   0.44406   0.85419   1.000
    O565    O    0.21768   0.37207   0.86459   1.000
    O566    O    0.44523   0.66928   0.87057   1.000
    O567    O    0.55484   0.66925   0.87094   1.000
    O568    O    0.81606   0.71751   0.88165   1.000
    O569    O    0.18408   0.71751   0.88167   1.000
    O570    O    0.87411   0.34417   0.87171   1.000
    O571    O    0.96603   0.34545   0.87702   1.000
    O572    O    0.12589   0.34411   0.87173   1.000
    O573    O    0.03396   0.34541   0.87703   1.000
    O574    O    0.22762   0.48794   0.88186   1.000
    O575    O    0.77240   0.48801   0.88186   1.000
    O576    O    0.80733   0.32909   0.93359   1.000
    O577    O    0.19261   0.32906   0.93360   1.000
    O578    O    0.50007   0.69876   0.88715   1.000
    O579    O    0.43709   0.71712   0.89763   1.000
    O580    O    0.56308   0.71709   0.89766   1.000
    O581    O    0.99996   0.32321   0.91839   1.000
    O582    O    0.77999   0.67999   0.90832   1.000
    O583    O    0.82289   0.71248   0.93839   1.000
    O584    O    0.22009   0.67998   0.90832   1.000
    O585    O    0.17723   0.71247   0.93841   1.000
    O586    O    0.25044   0.64580   0.94408   1.000
    O587    O    0.74958   0.64581   0.94409   1.000
    O588    O    0.85944   0.73769   0.97938   1.000
    O589    O    0.14073   0.73768   0.97940   1.000
    O590    O    0.27235   0.61812   0.98798   1.000
    O591    O    0.72762   0.61814   0.98800   1.000
loop_
    _geom_bond_atom_site_label_1
    _geom_bond_atom_site_label_2
    _geom_bond_distance
    _geom_bond_site_symmetry_2
    _ccdc_geom_bond_type
    C50    O272      0.54265      .   S
    C146   O272      0.54265      .   S
    C95    O273      0.54263      .   S
    C191   O273      0.54263      .   S
    C93    O274      0.54214      .   S
    C189   O274      0.54214      .   S
    C48    O275      0.54228      .   S
    C144   O275      0.54228      .   S
    C266   O276      0.99859      .   S
    C14    O276      0.99859      .   S
    C266   O277      0.69223  1_554   S
    C184   O277      0.69223      .   S
    C266   O278      0.67457  1_554   S
    C186   O278      0.67457      .   S
    C238   O279      0.99855      .   S
    C7     O279      0.99855      .   S
    C238   O280      0.69227  1_554   S
    C149   O280      0.69227      .   S
    C238   O281      0.67456  1_554   S
    C151   O281      0.67456      .   S
    C146   O282      0.67447      .   S
    C259   O282      0.67447      .   S
    C146   O283      0.67457      .   S
    C234   O283      0.67457  1_556   S
    C191   O284      0.67451      .   S
    C231   O284      0.67451      .   S
    C191   O285      0.67455      .   S
    C270   O285      0.67455  1_556   S
    C189   O286      0.68814      .   S
    C140   O286      0.68814      .   S
    C189   O287      0.69209      .   S
    C270   O287      0.69209  1_556   S
    C144   O288      0.68704      .   S
    C175   O288      0.68704      .   S
    C144   O289      0.69229      .   S
    C234   O289      0.69229  1_556   S
    C103   O290      0.54233      .   S
    C199   O290      0.54233      .   S
    C259   O291      0.69205      .   S
    C175   O291      0.69205      .   S
    C259   O292      1.00514      .   S
    C12    O292      1.00514      .   S
    C231   O293      0.69209      .   S
    C140   O293      0.69209      .   S
    C231   O294      1.00515      .   S
    C5     O294      1.00515      .   S
    C76    O295      0.54248      .   S
    C172   O295      0.54248      .   S
    C41    O296      0.54236      .   S
    C137   O296      0.54236      .   S
    C175   O297      0.54296      .   S
    C79    O297      0.54296      .   S
    C140   O298      0.54225      .   S
    C44    O298      0.54225      .   S
    C80    O299      0.54262      .   S
    C176   O299      0.54262      .   S
    C45    O300      0.54260      .   S
    C141   O300      0.54260      .   S
    C199   O301      0.67435      .   S
    C236   O301      0.67435      .   S
    C199   O302      0.67432  1_455   S
    C264   O302      0.67432      .   S
    C172   O303      0.68787      .   S
    C137   O303      0.68787      .   S
    C172   O304      0.69255      .   S
    C256   O304      0.69255      .   S
    C137   O305      0.69246      .   S
    C228   O305      0.69246      .   S
    C87    O306      0.54227      .   S
    C183   O306      0.54227      .   S
    C52    O307      0.54228      .   S
    C148   O307      0.54228      .   S
    C14    O308      1.00406      .   S
    C264   O308      1.00406      .   S
    C14    O309      1.00512      .   S
    C267   O309      1.00512      .   S
    C14    O310      1.00154      .   S
    C265   O310      1.00154      .   S
    C7     O311      1.00409      .   S
    C236   O311      1.00409      .   S
    C7     O312      1.00529      .   S
    C239   O312      1.00529      .   S
    C7     O313      1.00158      .   S
    C237   O313      1.00158      .   S
    C176   O314      0.67451      .   S
    C239   O314      0.67451      .   S
    C176   O315      0.67475      .   S
    C258   O315      0.67475      .   S
    C141   O316      0.67448      .   S
    C267   O316      0.67448      .   S
    C141   O317      0.67437      .   S
    C230   O317      0.67437      .   S
    C236   O318      0.69247      .   S
    C147   O318      0.69247      .   S
    C264   O319      0.69251      .   S
    C182   O319      0.69251      .   S
    C256   O320      0.67433      .   S
    C197   O320      0.67433      .   S
    C256   O321      1.00404      .   S
    C12    O321      1.00404      .   S
    C228   O322      0.67437      .   S
    C197   O322      0.67437      .   S
    C228   O323      1.00408      .   S
    C5     O323      1.00408      .   S
    C239   O324      0.69210      .   S
    C150   O324      0.69210      .   S
    C267   O325      0.69207      .   S
    C185   O325      0.69207      .   S
    C183   O326      0.69238      .   S
    C265   O326      0.69238      .   S
    C183   O327      0.68806      .   S
    C113   O327      0.68806      .   S
    C148   O328      0.69238      .   S
    C237   O328      0.69238      .   S
    C148   O329      0.68796      .   S
    C158   O329      0.68796      .   S
    C197   O330      0.54237      .   S
    C101   O330      0.54237      .   S
    C12    O331      0.99865      .   S
    C258   O331      0.99865      .   S
    C12    O332      1.00167      .   S
    C257   O332      1.00167      .   S
    C5     O333      0.99845      .   S
    C230   O333      0.99845      .   S
    C5     O334      1.00164      .   S
    C229   O334      1.00164      .   S
    C265   O335      0.67452      .   S
    C200   O335      0.67452      .   S
    C237   O336      0.67451      .   S
    C207   O336      0.67451      .   S
    C230   O337      0.69277      .   S
    C139   O337      0.69277      .   S
    C258   O338      0.69237      .   S
    C174   O338      0.69237      .   S
    C147   O339      0.68785  1_455   S
    C182   O339      0.68785      .   S
    C147   O340      0.54236      .   S
    C51    O340      0.54236      .   S
    C182   O341      0.54237      .   S
    C86    O341      0.54237      .   S
    C113   O342      0.54226      .   S
    C17    O342      0.54226      .   S
    C113   O343      0.69198      .   S
    C209   O343      0.69198      .   S
    C158   O344      0.54229      .   S
    C62    O344      0.54229      .   S
    C158   O345      0.69203      .   S
    C245   O345      0.69203      .   S
    C150   O346      0.68783      .   S
    C174   O346      0.68783      .   S
    C150   O347      0.54224      .   S
    C54    O347      0.54224      .   S
    C185   O348      0.68784      .   S
    C139   O348      0.68784      .   S
    C185   O349      0.54225      .   S
    C89    O349      0.54225      .   S
    C174   O350      0.54230      .   S
    C78    O350      0.54230      .   S
    C139   O351      0.54228      .   S
    C43    O351      0.54228      .   S
    C207   O352      0.54272      .   S
    C111   O352      0.54272      .   S
    C207   O353      0.67429      .   S
    C245   O353      0.67429      .   S
    C200   O354      0.54272      .   S
    C104   O354      0.54272      .   S
    C200   O355      0.67428      .   S
    C209   O355      0.67428      .   S
    C63    O356      0.54228      .   S
    C159   O356      0.54228      .   S
    C18    O357      0.54223      .   S
    C114   O357      0.54223      .   S
    C209   O358      1.00212      .   S
    C0     O358      1.00212      .   S
    C245   O359      1.00211      .   S
    C9     O359      1.00211      .   S
    C257   O360      0.67451      .   S
    C202   O360      0.67451      .   S
    C257   O361      0.69241      .   S
    C173   O361      0.69241      .   S
    C229   O362      0.67452      .   S
    C205   O362      0.67452      .   S
    C229   O363      0.69241      .   S
    C138   O363      0.69241      .   S
    C106   O364      0.54269      .   S
    C202   O364      0.54269      .   S
    C109   O365      0.54281      .   S
    C205   O365      0.54281      .   S
    C26    O366      0.54235      .   S
    C122   O366      0.54235      .   S
    C71    O367      0.54233      .   S
    C167   O367      0.54233      .   S
    C29    O368      0.54224      .   S
    C125   O368      0.54224      .   S
    C74    O369      0.54225      .   S
    C170   O369      0.54225      .   S
    C202   O370      0.67457      .   S
    C217   O370      0.67457      .   S
    C205   O371      0.67446      .   S
    C253   O371      0.67446      .   S
    C159   O372      0.68784      .   S
    C125   O372      0.68784      .   S
    C159   O373      0.69240      .   S
    C246   O373      0.69240  1_565   S
    C114   O374      0.68783      .   S
    C170   O374      0.68783      .   S
    C114   O375      0.69250      .   S
    C210   O375      0.69250  1_565   S
    C42    O376      0.54228      .   S
    C138   O376      0.54228      .   S
    C77    O377      0.54231      .   S
    C173   O377      0.54231      .   S
    C125   O378      0.69205      .   S
    C219   O378      0.69205      .   S
    C170   O379      0.69208      .   S
    C255   O379      0.69208      .   S
    C138   O380      0.68797      .   S
    C168   O380      0.68797      .   S
    C173   O381      0.68798      .   S
    C123   O381      0.68798      .   S
    C122   O382      0.68787      .   S
    C167   O382      0.68787      .   S
    C122   O383      0.69254      .   S
    C216   O383      0.69254      .   S
    C167   O384      0.69254      .   S
    C252   O384      0.69254      .   S
    C96    O385      0.54239      .   S
    C192   O385      0.54239      .   S
    C246   O386      0.99850      .   S
    C9     O386      0.99850      .   S
    C246   O387      0.67477  1_565   S
    C161   O387      0.67477      .   S
    C210   O388      0.99864      .   S
    C0     O388      0.99864      .   S
    C210   O389      0.67471  1_565   S
    C116   O389      0.67471      .   S
    C253   O390      0.69238      .   S
    C168   O390      0.69238      .   S
    C253   O391      1.00148      .   S
    C11    O391      1.00148      .   S
    C217   O392      0.69237      .   S
    C123   O392      0.69237      .   S
    C217   O393      1.00157      .   S
    C2     O393      1.00157      .   S
    C9     O394      1.00269      .   S
    C244   O394      1.00269      .   S
    C9     O395      1.00520      .   S
    C247   O395      1.00520      .   S
    C0     O396      1.00406      .   S
    C208   O396      1.00406      .   S
    C0     O397      1.00517      .   S
    C211   O397      1.00517      .   S
    C192   O398      0.67252      .   S
    C244   O398      0.67252      .   S
    C192   O399      0.67429  1_455   S
    C208   O399      0.67429      .   S
    C168   O400      0.54230      .   S
    C72    O400      0.54230      .   S
    C123   O401      0.54232      .   S
    C27    O401      0.54232      .   S
    C255   O402      0.67451      .   S
    C116   O402      0.67451      .   S
    C255   O403      1.00521      .   S
    C11    O403      1.00521      .   S
    C219   O404      0.67449      .   S
    C161   O404      0.67449      .   S
    C219   O405      1.00513      .   S
    C2     O405      1.00513      .   S
    C244   O406      0.69565      .   S
    C157   O406      0.69565      .   S
    C208   O407      0.69256      .   S
    C112   O407      0.69256      .   S
    C64    O408      0.54223      .   S
    C160   O408      0.54223      .   S
    C19    O409      0.54222      .   S
    C115   O409      0.54222      .   S
    C216   O410      1.00408      .   S
    C2     O410      1.00408      .   S
    C216   O411      0.67435      .   S
    C194   O411      0.67435      .   S
    C252   O412      1.00403      .   S
    C11    O412      1.00403      .   S
    C252   O413      0.67433      .   S
    C194   O413      0.67433      .   S
    C161   O414      0.54265      .   S
    C65    O414      0.54265      .   S
    C116   O415      0.54227      .   S
    C20    O415      0.54227      .   S
    C11    O416      0.99838      .   S
    C254   O416      0.99838      .   S
    C2     O417      0.99848      .   S
    C218   O417      0.99848      .   S
    C157   O418      0.68785  1_455   S
    C112   O418      0.68785      .   S
    C157   O419      0.54235      .   S
    C61    O419      0.54235      .   S
    C112   O420      0.54236      .   S
    C16    O420      0.54236      .   S
    C194   O421      0.54234      .   S
    C98    O421      0.54234      .   S
    C160   O422      0.69209      .   S
    C247   O422      0.69209      .   S
    C160   O423      0.68783      .   S
    C129   O423      0.68783      .   S
    C115   O424      0.69210      .   S
    C211   O424      0.69210      .   S
    C115   O425      0.68789      .   S
    C164   O425      0.68789      .   S
    C247   O426      0.67450      .   S
    C131   O426      0.67450      .   S
    C211   O427      0.67447      .   S
    C166   O427      0.67447      .   S
    C129   O428      0.54227      .   S
    C33    O428      0.54227      .   S
    C129   O429      0.69244      .   S
    C222   O429      0.69244      .   S
    C164   O430      0.54226      .   S
    C68    O430      0.54226      .   S
    C164   O431      0.69239      .   S
    C250   O431      0.69239      .   S
    C166   O432      0.54268      .   S
    C70    O432      0.54268      .   S
    C166   O433      0.67474      .   S
    C250   O433      0.67474      .   S
    C131   O434      0.54268      .   S
    C35    O434      0.54268      .   S
    C131   O435      0.67475      .   S
    C222   O435      0.67475      .   S
    C254   O436      0.67498      .   S
    C171   O436      0.67498      .   S
    C254   O437      0.69268      .   S
    C169   O437      0.69268      .   S
    C218   O438      0.67474      .   S
    C126   O438      0.67474      .   S
    C218   O439      0.69240      .   S
    C124   O439      0.69240      .   S
    C75    O440      0.54268      .   S
    C171   O440      0.54268      .   S
    C30    O441      0.54264      .   S
    C126   O441      0.54264      .   S
    C28    O442      0.54226      .   S
    C124   O442      0.54226      .   S
    C73    O443      0.54227      .   S
    C169   O443      0.54227      .   S
    C250   O444      0.99847      .   S
    C10    O444      0.99847      .   S
    C222   O445      0.99857      .   S
    C3     O445      0.99857      .   S
    C171   O446      0.67450      .   S
    C215   O446      0.67450      .   S
    C126   O447      0.67448      .   S
    C243   O447      0.67448      .   S
    C124   O448      0.68788      .   S
    C155   O448      0.68788      .   S
    C169   O449      0.68783      .   S
    C120   O449      0.68783      .   S
    C99    O450      0.54245      .   S
    C195   O450      0.54245      .   S
    C243   O451      0.69210      .   S
    C155   O451      0.69210      .   S
    C243   O452      1.00516      .   S
    C8     O452      1.00516      .   S
    C215   O453      0.69209      .   S
    C120   O453      0.69209      .   S
    C215   O454      1.00520      .   S
    C1     O454      1.00520      .   S
    C56    O455      0.54257      .   S
    C152   O455      0.54257      .   S
    C21    O456      0.54234      .   S
    C117   O456      0.54234      .   S
    C120   O457      0.54223      .   S
    C24    O457      0.54223      .   S
    C155   O458      0.54222      .   S
    C59    O458      0.54222      .   S
    C25    O459      0.54264      .   S
    C121   O459      0.54264      .   S
    C60    O460      0.54264      .   S
    C156   O460      0.54264      .   S
    C195   O461      0.67429      .   S
    C220   O461      0.67429      .   S
    C195   O462      0.67431      .   S
    C248   O462      0.67431      .   S
    C117   O463      0.68785  1_655   S
    C152   O463      0.68785      .   S
    C117   O464      0.69256      .   S
    C212   O464      0.69256      .   S
    C152   O465      0.69253      .   S
    C240   O465      0.69253      .   S
    C67    O466      0.54222      .   S
    C163   O466      0.54222      .   S
    C32    O467      0.54224      .   S
    C128   O467      0.54224      .   S
    C3     O468      1.00407      .   S
    C220   O468      1.00407      .   S
    C3     O469      1.00530      .   S
    C223   O469      1.00530      .   S
    C3     O470      1.00157      .   S
    C221   O470      1.00157      .   S
    C10    O471      1.00408      .   S
    C248   O471      1.00408      .   S
    C10    O472      1.00513      .   S
    C251   O472      1.00513      .   S
    C10    O473      1.00157      .   S
    C249   O473      1.00157      .   S
    C156   O474      0.67452      .   S
    C223   O474      0.67452      .   S
    C156   O475      0.67473      .   S
    C242   O475      0.67473  1_545   S
    C121   O476      0.67448      .   S
    C251   O476      0.67448      .   S
    C121   O477      0.67477      .   S
    C214   O477      0.67477  1_545   S
    C220   O478      0.69257      .   S
    C127   O478      0.69257      .   S
    C248   O479      0.69249      .   S
    C162   O479      0.69249      .   S
    C240   O480      0.67432      .   S
    C193   O480      0.67432  1_655   S
    C240   O481      1.00407      .   S
    C8     O481      1.00407      .   S
    C212   O482      0.67431      .   S
    C193   O482      0.67431      .   S
    C212   O483      1.00405      .   S
    C1     O483      1.00405      .   S
    C223   O484      0.69205      .   S
    C130   O484      0.69205      .   S
    C251   O485      0.69211      .   S
    C165   O485      0.69211      .   S
    C163   O486      0.69238      .   S
    C249   O486      0.69238      .   S
    C163   O487      0.68805      .   S
    C133   O487      0.68805      .   S
    C128   O488      0.69239      .   S
    C221   O488      0.69239      .   S
    C128   O489      0.68803      .   S
    C178   O489      0.68803      .   S
    C193   O490      0.54236      .   S
    C97    O490      0.54236      .   S
    C8     O491      0.99864      .   S
    C242   O491      0.99864      .   S
    C8     O492      1.00162      .   S
    C241   O492      1.00162      .   S
    C1     O493      0.99850      .   S
    C214   O493      0.99850      .   S
    C1     O494      1.00164      .   S
    C213   O494      1.00164      .   S
    C249   O495      0.67454      .   S
    C204   O495      0.67454      .   S
    C221   O496      0.67455      .   S
    C203   O496      0.67455      .   S
    C242   O497      0.69247  1_545   S
    C154   O497      0.69247      .   S
    C214   O498      0.69239  1_545   S
    C119   O498      0.69239      .   S
    C127   O499      0.68787      .   S
    C162   O499      0.68787      .   S
    C127   O500      0.54234      .   S
    C31    O500      0.54234      .   S
    C162   O501      0.54236      .   S
    C66    O501      0.54236      .   S
    C133   O502      0.54227      .   S
    C37    O502      0.54227      .   S
    C133   O503      0.69238      .   S
    C225   O503      0.69238      .   S
    C178   O504      0.54228      .   S
    C82    O504      0.54228      .   S
    C178   O505      0.69236      .   S
    C261   O505      0.69236      .   S
    C130   O506      0.68784      .   S
    C154   O506      0.68784      .   S
    C130   O507      0.54226      .   S
    C34    O507      0.54226      .   S
    C165   O508      0.68783      .   S
    C119   O508      0.68783      .   S
    C165   O509      0.54223      .   S
    C69    O509      0.54223      .   S
    C154   O510      0.54224      .   S
    C58    O510      0.54224      .   S
    C119   O511      0.54226      .   S
    C23    O511      0.54226      .   S
    C203   O512      0.54236      .   S
    C107   O512      0.54236      .   S
    C203   O513      0.67448      .   S
    C261   O513      0.67448      .   S
    C204   O514      0.54268      .   S
    C108   O514      0.54268      .   S
    C204   O515      0.67452      .   S
    C225   O515      0.67452      .   S
    C83    O516      0.54227      .   S
    C179   O516      0.54227      .   S
    C38    O517      0.54224      .   S
    C134   O517      0.54224      .   S
    C261   O518      1.00165      .   S
    C13    O518      1.00165      .   S
    C225   O519      1.00158      .   S
    C4     O519      1.00158      .   S
    C241   O520      0.67450      .   S
    C206   O520      0.67450      .   S
    C241   O521      0.69239      .   S
    C153   O521      0.69239      .   S
    C213   O522      0.67449      .   S
    C201   O522      0.67449      .   S
    C213   O523      0.69236      .   S
    C118   O523      0.69236      .   S
    C110   O524      0.54294      .   S
    C206   O524      0.54294      .   S
    C105   O525      0.54269      .   S
    C201   O525      0.54269      .   S
    C46    O526      0.54236      .   S
    C142   O526      0.54236      .   S
    C91    O527      0.54236      .   S
    C187   O527      0.54236      .   S
    C49    O528      0.54223      .   S
    C145   O528      0.54223      .   S
    C94    O529      0.54224      .   S
    C190   O529      0.54224      .   S
    C206   O530      0.67452      .   S
    C233   O530      0.67452      .   S
    C201   O531      0.67454      .   S
    C269   O531      0.67454      .   S
    C179   O532      0.68783      .   S
    C145   O532      0.68783      .   S
    C179   O533      0.69214      .   S
    C262   O533      0.69214      .   S
    C134   O534      0.68785      .   S
    C190   O534      0.68785      .   S
    C134   O535      0.69243      .   S
    C226   O535      0.69243      .   S
    C22    O536      0.54228      .   S
    C118   O536      0.54228      .   S
    C57    O537      0.54228      .   S
    C153   O537      0.54228      .   S
    C145   O538      0.69210      .   S
    C235   O538      0.69210      .   S
    C190   O539      0.69182      .   S
    C271   O539      0.69182      .   S
    C118   O540      0.68803      .   S
    C188   O540      0.68803      .   S
    C153   O541      0.68799      .   S
    C143   O541      0.68799      .   S
    C142   O542      0.68785      .   S
    C187   O542      0.68785  1_655   S
    C142   O543      0.69250      .   S
    C232   O543      0.69250      .   S
    C187   O544      0.69222      .   S
    C268   O544      0.69222      .   S
    C100   O545      0.54241      .   S
    C196   O545      0.54241      .   S
    C262   O546      0.99854      .   S
    C13    O546      0.99854      .   S
    C262   O547      0.67495      .   S
    C181   O547      0.67495      .   S
    C226   O548      0.99863      .   S
    C4     O548      0.99863      .   S
    C226   O549      0.67471      .   S
    C136   O549      0.67471      .   S
    C269   O550      0.69238      .   S
    C188   O550      0.69238      .   S
    C269   O551      1.00158      .   S
    C15    O551      1.00158      .   S
    C233   O552      0.69238      .   S
    C143   O552      0.69238      .   S
    C233   O553      1.00160      .   S
    C6     O553      1.00160      .   S
    C13    O554      1.00268      .   S
    C260   O554      1.00268      .   S
    C13    O555      1.00515      .   S
    C263   O555      1.00515      .   S
    C4     O556      1.00407      .   S
    C224   O556      1.00407      .   S
    C4     O557      1.00521      .   S
    C227   O557      1.00521      .   S
    C196   O558      0.67252      .   S
    C260   O558      0.67252      .   S
    C196   O559      0.67431      .   S
    C224   O559      0.67431      .   S
    C188   O560      0.54223      .   S
    C92    O560      0.54223      .   S
    C143   O561      0.54227      .   S
    C47    O561      0.54227      .   S
    C271   O562      0.67457      .   S
    C136   O562      0.67457      .   S
    C271   O563      1.00541      .   S
    C15    O563      1.00541      .   S
    C235   O564      0.67448      .   S
    C181   O564      0.67448      .   S
    C235   O565      1.00514      .   S
    C6     O565      1.00514      .   S
    C260   O566      0.69565      .   S
    C177   O566      0.69565      .   S
    C224   O567      0.69255      .   S
    C132   O567      0.69255      .   S
    C39    O568      0.54228      .   S
    C135   O568      0.54228      .   S
    C84    O569      0.54225      .   S
    C180   O569      0.54225      .   S
    C268   O570      1.00414      .   S
    C15    O570      1.00414      .   S
    C268   O571      0.67448      .   S
    C198   O571      0.67448      .   S
    C232   O572      1.00408      .   S
    C6     O572      1.00408      .   S
    C232   O573      0.67433      .   S
    C198   O573      0.67433  1_655   S
    C181   O574      0.54263      .   S
    C85    O574      0.54263      .   S
    C136   O575      0.54263      .   S
    C40    O575      0.54263      .   S
    C15    O576      0.99855      .   S
    C270   O576      0.99855      .   S
    C6     O577      0.99850      .   S
    C234   O577      0.99850      .   S
    C177   O578      0.68787      .   S
    C132   O578      0.68787      .   S
    C177   O579      0.54236      .   S
    C81    O579      0.54236      .   S
    C132   O580      0.54234      .   S
    C36    O580      0.54234      .   S
    C198   O581      0.54241      .   S
    C102   O581      0.54241      .   S
    C135   O582      0.69210      .   S
    C227   O582      0.69210      .   S
    C135   O583      0.68785      .   S
    C184   O583      0.68785      .   S
    C180   O584      0.69209      .   S
    C263   O584      0.69209      .   S
    C180   O585      0.68787      .   S
    C149   O585      0.68787      .   S
    C263   O586      0.67451      .   S
    C151   O586      0.67451      .   S
    C227   O587      0.67447      .   S
    C186   O587      0.67447      .   S
    C184   O588      0.54226      .   S
    C88    O588      0.54226      .   S
    C149   O589      0.54224      .   S
    C53    O589      0.54224      .   S
    C151   O590      0.54263      .   S
    C55    O590      0.54263      .   S
    C186   O591      0.54265      .   S
    C90    O591      0.54265      .   S
