# CIF file generated by openbabel 2.4.90, see http://openbabel.sf.net
data_I
_chemical_name_common ''
_cell_length_a 7.525
_cell_length_b 12.561
_cell_length_c 12.567
_cell_angle_alpha 85.092
_cell_angle_beta 82.732
_cell_angle_gamma 82.585
_space_group_name_H-M_alt 'P 1'
_space_group_name_Hall 'P 1'
loop_
    _symmetry_equiv_pos_as_xyz
    x,y,z
loop_
    _atom_site_label
    _atom_site_type_symbol
    _atom_site_fract_x
    _atom_site_fract_y
    _atom_site_fract_z
    _atom_site_occupancy
    Cu0     Cu   0.40658   0.94054   0.35622   1.000
    Cu1     Cu   0.59335   0.05949   0.64377   1.000
    Cu2     Cu   0.09416   0.64378   0.05938   1.000
    Cu3     Cu   0.90615   0.35621   0.94057   1.000
