# CIF file generated by openbabel 2.4.90, see http://openbabel.sf.net
data_I
_chemical_name_common ''
_cell_length_a 7.525
_cell_length_b 12.561
_cell_length_c 12.567
_cell_angle_alpha 85.092
_cell_angle_beta 82.732
_cell_angle_gamma 82.585
_space_group_name_H-M_alt 'P 1'
_space_group_name_Hall 'P 1'
loop_
    _symmetry_equiv_pos_as_xyz
    x,y,z
loop_
    _atom_site_label
    _atom_site_type_symbol
    _atom_site_fract_x
    _atom_site_fract_y
    _atom_site_fract_z
    _atom_site_occupancy
    Cu0     Cu   0.40658   0.94054   0.35622   1.000
    Cu1     Cu   0.59335   0.05949   0.64377   1.000
    Cu2     Cu   0.09416   0.64378   0.05938   1.000
    Cu3     Cu   0.90615   0.35621   0.94057   1.000
    Ts4     Ts   0.43535   0.89171   0.34596   1.000
    Ts5     Ts   0.36730   0.98859   0.35090   1.000
    Ts6     Ts   0.48728   0.95558   0.36093   1.000
    Ts7     Ts   0.35162   0.92833   0.40515   1.000
    Ts8     Ts   0.64832   0.07169   0.59482   1.000
    Ts9     Ts   0.51267   0.04444   0.63904   1.000
    Ts10    Ts   0.56459   0.10831   0.65402   1.000
    Ts11    Ts   0.63264   0.01144   0.64911   1.000
    Ts12    Ts   0.14909   0.59471   0.07157   1.000
    Ts13    Ts   0.06538   0.65399   0.10819   1.000
    Ts14    Ts   0.13313   0.64917   0.01135   1.000
    Ts15    Ts   0.01324   0.63914   0.04437   1.000
    Ts16    Ts   0.98694   0.36083   0.95563   1.000
    Ts17    Ts   0.93481   0.34601   0.89180   1.000
    Ts18    Ts   0.86717   0.35079   0.98859   1.000
    Ts19    Ts   0.85116   0.40526   0.92841   1.000
loop_
    _geom_bond_atom_site_label_1
    _geom_bond_atom_site_label_2
    _geom_bond_distance
    _geom_bond_site_symmetry_2
    _ccdc_geom_bond_type
    Cu0    Ts4       0.64166      .   S
    Cu0    Ts5       0.63896      .   S
    Cu0    Ts6       0.66973      .   S
    Cu0    Ts7       0.71318      .   S
    Cu1    Ts8       0.71323      .   S
    Cu1    Ts9       0.66973      .   S
    Cu1    Ts10      0.64166      .   S
    Cu1    Ts11      0.63893      .   S
    Cu2    Ts12      0.71290      .   S
    Cu2    Ts13      0.64214      .   S
    Cu2    Ts14      0.63893      .   S
    Cu2    Ts15      0.67072      .   S
    Cu3    Ts16      0.67003      .   S
    Cu3    Ts17      0.64139      .   S
    Cu3    Ts18      0.63892      .   S
    Cu3    Ts19      0.71295      .   S
