# CIF file generated by openbabel 2.4.90, see http://openbabel.sf.net
data_I
_chemical_name_common ''
_cell_length_a 13.444
_cell_length_b 13.791
_cell_length_c 27.651
_cell_angle_alpha 90.014
_cell_angle_beta 89.914
_cell_angle_gamma 89.064
_space_group_name_H-M_alt 'P 1'
_space_group_name_Hall 'P 1'
loop_
    _symmetry_equiv_pos_as_xyz
    x,y,z
loop_
    _atom_site_label
    _atom_site_type_symbol
    _atom_site_fract_x
    _atom_site_fract_y
    _atom_site_fract_z
    _atom_site_occupancy
    Lv0     Lv   0.93543   0.88368   0.80092   1.000
    Lv1     Lv   0.53395   0.00958   0.40626   1.000
    Lv2     Lv   0.42345   0.20136   0.45053   1.000
    Lv3     Lv   0.42101   0.30113   0.95141   1.000
    Lv4     Lv   0.93314   0.19745   0.04980   1.000
    Lv5     Lv   0.83636   0.39320   0.64934   1.000
    Lv6     Lv   0.34251   0.10727   0.35137   1.000
    Lv7     Lv   0.05734   0.79486   0.94946   1.000
    Lv8     Lv   0.57729   0.79696   0.55124   1.000
    Lv9     Lv   0.33461   0.38839   0.85056   1.000
    Lv10    Lv   0.15373   0.22030   0.09719   1.000
    Lv11    Lv   0.46071   0.31739   0.34680   1.000
    Lv12    Lv   0.06892   0.11840   0.19889   1.000
    Lv13    Lv   0.02819   0.49271   0.59505   1.000
    Lv14    Lv   0.50993   0.35881   0.64427   1.000
    Lv15    Lv   0.04374   0.81831   0.34653   1.000
    Lv16    Lv   0.05381   0.01381   0.09640   1.000
    Lv17    Lv   0.44467   0.62142   0.19933   1.000
    Lv18    Lv   0.98559   0.63174   0.13565   1.000
    Lv19    Lv   0.95747   0.18210   0.65232   1.000
    Lv20    Lv   0.52236   0.48907   0.90547   1.000
    Lv21    Lv   0.43511   0.88554   0.69723   1.000
    Lv22    Lv   0.46867   0.99030   0.59471   1.000
    Lv23    Lv   0.64259   0.28472   0.90678   1.000
    Lv24    Lv   0.56513   0.11604   0.30308   1.000
    Lv25    Lv   0.47976   0.85518   0.85512   1.000
    Lv26    Lv   0.92108   0.30385   0.54926   1.000
    Lv27    Lv   0.48866   0.63972   0.35901   1.000
    Lv28    Lv   0.66263   0.60819   0.14991   1.000
    Lv29    Lv   0.47170   0.51645   0.09594   1.000
    Lv30    Lv   0.55744   0.37979   0.80333   1.000
    Lv31    Lv   0.98606   0.85993   0.64179   1.000
    Lv32    Lv   0.95790   0.31293   0.15353   1.000
    Lv33    Lv   0.96038   0.98817   0.90321   1.000
    Lv34    Lv   0.35947   0.72834   0.09905   1.000
    Lv35    Lv   0.14377   0.28746   0.59435   1.000
    Lv36    Lv   0.65864   0.89098   0.65029   1.000
    Lv37    Lv   0.85650   0.71448   0.40411   1.000
    Lv38    Lv   0.52142   0.14616   0.14440   1.000
    Lv39    Lv   0.03135   0.68019   0.84485   1.000
    Lv40    Lv   0.16231   0.60649   0.34998   1.000
    Lv41    Lv   0.00814   0.35946   0.85754   1.000
    Lv42    Lv   0.05739   0.38314   0.69732   1.000
    Lv43    Lv   0.53776   0.68159   0.65497   1.000
    Lv44    Lv   0.35272   0.78721   0.59426   1.000
    Lv45    Lv   0.64716   0.21359   0.40603   1.000
    Lv46    Lv   0.94363   0.61931   0.29916   1.000
    Lv47    Lv   0.07909   0.69619   0.44946   1.000
    Lv48    Lv   0.84912   0.10317   0.14932   1.000
    Lv49    Lv   0.55122   0.82157   0.15398   1.000
    Lv50    Lv   0.84052   0.78784   0.90128   1.000
    Lv51    Lv   0.01492   0.14022   0.35769   1.000
    Lv52    Lv   0.45572   0.17783   0.84770   1.000
    Lv53    Lv   0.57992   0.69940   0.04982   1.000
    Lv54    Lv   0.15464   0.88739   0.84964   1.000
    Lv55    Lv   0.96888   0.50913   0.40225   1.000
