# CIF file generated by openbabel 2.4.90, see http://openbabel.sf.net
data_I
_chemical_name_common ''
_cell_length_a 13.585
_cell_length_b 14.447
_cell_length_c 14.451
_cell_angle_alpha 69.286
_cell_angle_beta 71.796
_cell_angle_gamma 108.206
_space_group_name_H-M_alt 'P 1'
_space_group_name_Hall 'P 1'
loop_
    _symmetry_equiv_pos_as_xyz
    x,y,z
loop_
    _atom_site_label
    _atom_site_type_symbol
    _atom_site_fract_x
    _atom_site_fract_y
    _atom_site_fract_z
    _atom_site_occupancy
    Ga0     Ga   0.18666   0.86710   0.54522   1.000
    Ga1     Ga   0.52195   0.37718   0.45341   1.000
    Ga2     Ga   0.73232   0.54519   0.58803   1.000
    Ga3     Ga   0.97520   0.45360   0.16950   1.000
    Ga4     Ga   0.32010   0.58784   0.86694   1.000
    Ga5     Ga   0.85524   0.83079   0.62280   1.000
    Ga6     Ga   0.81334   0.13293   0.45478   1.000
    Ga7     Ga   0.47804   0.62285   0.54659   1.000
    Ga8     Ga   0.26768   0.45484   0.41197   1.000
    Ga9     Ga   0.02479   0.54644   0.83050   1.000
    Ga10    Ga   0.67990   0.41219   0.13306   1.000
    P11     P    0.06470   0.94639   0.39589   1.000
    P12     P    0.06507   0.35410   0.33296   1.000
    P13     P    0.46161   0.39604   0.65772   1.000
    P14     P    0.39786   0.33276   0.31304   1.000
    P15     P    0.11887   0.65771   0.94600   1.000
    P16     P    0.71115   0.31327   0.35405   1.000
    P17     P    0.93530   0.05364   0.60411   1.000
    P18     P    0.93493   0.64593   0.66700   1.000
    P19     P    0.53838   0.60399   0.34228   1.000
    P20     P    0.60214   0.66728   0.68697   1.000
    P21     P    0.88112   0.34233   0.05400   1.000
    P22     P    0.28885   0.68676   0.64595   1.000
    Ga23    Ga   0.14475   0.16924   0.37718   1.000
    O24     O    0.11158   0.95133   0.48089   1.000
    O25     O    0.09071   0.07254   0.32533   1.000
    O26     O    0.92419   0.87100   0.47038   1.000
    O27     O    0.11391   0.90282   0.32296   1.000
    O28     O    0.12174   0.28672   0.29317   1.000
    O29     O    0.08741   0.45167   0.22057   1.000
    O30     O    0.12128   0.40591   0.39082   1.000
    O31     O    0.93101   0.28018   0.41084   1.000
    O32     O    0.59315   0.48132   0.56790   1.000
    O33     O    0.41721   0.32554   0.60214   1.000
    O34     O    0.39513   0.47038   0.65879   1.000
    O35     O    0.43821   0.32302   0.77418   1.000
    O36     O    0.41485   0.29317   0.42026   1.000
    O37     O    0.30782   0.22016   0.32836   1.000
    O38     O    0.51171   0.39025   0.20340   1.000
    O39     O    0.34158   0.41080   0.30877   1.000
    O40     O    0.16083   0.56781   0.95062   1.000
    O41     O    0.01909   0.60233   0.07199   1.000
    O42     O    0.05347   0.65874   0.87061   1.000
    O43     O    0.21164   0.77419   0.90246   1.000
    O44     O    0.83495   0.42062   0.28633   1.000
    O45     O    0.63638   0.32839   0.45142   1.000
    O46     O    0.71596   0.20374   0.40593   1.000
    O47     O    0.65044   0.30894   0.28045   1.000
    O48     O    0.88841   0.04870   0.51912   1.000
    O49     O    0.90929   0.92749   0.67467   1.000
    O50     O    0.07581   0.12904   0.52962   1.000
    O51     O    0.88608   0.09721   0.67704   1.000
    O52     O    0.87825   0.71331   0.70683   1.000
    O53     O    0.91258   0.54836   0.77944   1.000
    O54     O    0.87871   0.59412   0.60918   1.000
    O55     O    0.06898   0.71986   0.58916   1.000
    O56     O    0.40684   0.51871   0.43210   1.000
    O57     O    0.58279   0.67449   0.39787   1.000
    O58     O    0.60486   0.52965   0.34121   1.000
    O59     O    0.56179   0.67701   0.22583   1.000
    O60     O    0.58514   0.70686   0.57970   1.000
    O61     O    0.69217   0.77987   0.67164   1.000
    O62     O    0.48828   0.60978   0.79657   1.000
    O63     O    0.65841   0.58923   0.69120   1.000
    O64     O    0.83916   0.43222   0.04938   1.000
    O65     O    0.98090   0.39771   0.92801   1.000
    O66     O    0.94652   0.34129   0.12940   1.000
    O67     O    0.78836   0.22584   0.09754   1.000
    O68     O    0.16505   0.57941   0.71367   1.000
    O69     O    0.36361   0.67164   0.54858   1.000
    O70     O    0.28404   0.79630   0.59408   1.000
    O71     O    0.34956   0.69109   0.71956   1.000
loop_
    _geom_bond_atom_site_label_1
    _geom_bond_atom_site_label_2
    _geom_bond_distance
    _geom_bond_site_symmetry_2
    _ccdc_geom_bond_type
    O64    P21       1.56237      .   S
    O64    Ga10      1.98843      .   S
    P21    O67       1.49879      .   S
    P21    O66       1.60576      .   S
    P21    O65       1.59447  1_554   S
    O41    Ga3       1.86833  1_455   S
    O41    P15       1.59447  1_554   S
    O66    Ga3       1.87920      .   S
    Ga10   O38       2.05485      .   S
    Ga10   O47       1.94130      .   S
    Ga3    O44       1.88727      .   S
    O38    P14       1.52568      .   S
    O29    P12       1.58808      .   S
    O59    P19       1.49869      .   S
    O47    P16       1.54214      .   S
    O44    P16       1.56837      .   S
    O28    P12       1.56795      .   S
    O28    Ga23      1.88771      .   S
    O39    P14       1.54219      .   S
    O39    Ga8       1.94214      .   S
    P14    O37       1.58867      .   S
    P14    O36       1.56853      .   S
    O27    P11       1.49860      .   S
    O25    Ga23      1.86960      .   S
    O25    P11       1.59498  1_545   S
    P12    O30       1.52547      .   S
    P12    O31       1.54194  1_455   S
    O58    P19       1.60575      .   S
    O58    Ga1       1.87930      .   S
    P19    O57       1.59512      .   S
    P19    O56       1.56195      .   S
    P16    O46       1.52527      .   S
    P16    O45       1.58818      .   S
    Ga23   O50       1.87968      .   S
    O30    Ga8       2.05002      .   S
    P11    O26       1.60512  1_455   S
    P11    O24       1.56267      .   S
    O57    Ga7       1.86868      .   S
    O46    Ga6       2.05255      .   S
    O31    Ga6       1.94147      .   S
    Ga8    O56       1.98837      .   S
    O36    Ga1       1.88754      .   S
    Ga1    O33       1.86879      .   S
    Ga6    O48       1.98824      .   S
    O26    Ga5       1.87942      .   S
    O24    Ga0       1.98818      .   S
    O48    P17       1.56253      .   S
    O50    P17       1.60512  1_455   S
    Ga0    O55       1.94147      .   S
    Ga0    O70       2.05260      .   S
    Ga7    O60       1.88712      .   S
    Ga7    O34       1.87930      .   S
    O69    P22       1.58819      .   S
    O32    Ga2       1.98837      .   S
    O32    P13       1.56195      .   S
    O60    P20       1.56918      .   S
    Ga2    O54       2.05002      .   S
    Ga2    O63       1.94183      .   S
    O55    P18       1.54187  1_455   S
    O70    P22       1.52525      .   S
    O33    P13       1.59500      .   S
    P17    O49       1.59498  1_545   S
    P17    O51       1.49860      .   S
    O54    P18       1.52496      .   S
    Ga5    O49       1.86983      .   S
    Ga5    O52       1.88782      .   S
    P22    O68       1.56837      .   S
    P22    O71       1.54227      .   S
    P13    O34       1.60575      .   S
    P13    O35       1.49881      .   S
    P18    O52       1.56820      .   S
    P18    O53       1.58855      .   S
    O61    P20       1.58861      .   S
    P20    O63       1.54222      .   S
    P20    O62       1.52538      .   S
    O68    Ga9       1.88727      .   S
    O71    Ga4       1.94119      .   S
    O62    Ga4       2.05489      .   S
    Ga9    O42       1.87929      .   S
    Ga9    O65       1.86833  1_455   S
    Ga4    O40       1.98843      .   S
    O42    P15       1.60564      .   S
    O43    P15       1.49879      .   S
    P15    O40       1.56237      .   S
    O29    Ga3       1.89313  1_455   S
    O37    Ga23      1.89324      .   S
    O45    Ga1       1.89354      .   S
    O53    Ga9       1.89304  1_655   S
    O61    Ga5       1.89320      .   S
    O69    Ga7       1.89352      .   S
