# CIF file generated by openbabel 2.4.90, see http://openbabel.sf.net
data_I
_chemical_name_common ''
_cell_length_a 16.645
_cell_length_b 16.816
_cell_length_c 27.26
_cell_angle_alpha 90.069
_cell_angle_beta 90.16
_cell_angle_gamma 89.401
_space_group_name_H-M_alt 'P 1'
_space_group_name_Hall 'P 1'
loop_
    _symmetry_equiv_pos_as_xyz
    x,y,z
loop_
    _atom_site_label
    _atom_site_type_symbol
    _atom_site_fract_x
    _atom_site_fract_y
    _atom_site_fract_z
    _atom_site_occupancy
    Zr0     Zr   0.50759   0.78277   0.57661   1.000
    Zr1     Zr   0.00000   0.78276   0.57662   1.000
    Zr2     Zr   0.24731   0.28356   0.42321   1.000
    Zr3     Zr   0.74728   0.28357   0.42322   1.000
    Zr4     Zr   0.99477   0.21940   0.07638   1.000
    Zr5     Zr   0.49506   0.21973   0.07624   1.000
    Zr6     Zr   0.25624   0.71836   0.92399   1.000
    Zr7     Zr   0.75617   0.71795   0.92312   1.000
    Zr8     Zr   0.99641   0.22078   0.42374   1.000
    Zr9     Zr   0.49639   0.22076   0.42372   1.000
    Zr10    Zr   0.25665   0.72046   0.57694   1.000
    Zr11    Zr   0.75653   0.72044   0.57678   1.000
    Zr12    Zr   0.50666   0.78064   0.92446   1.000
    Zr13    Zr   0.00000   0.78026   0.92464   1.000
    Zr14    Zr   0.24532   0.28146   0.07664   1.000
    Zr15    Zr   0.74534   0.28114   0.07663   1.000
    N16     N    0.69076   0.04443   0.95341   1.000
    O17     O    0.71179   0.91259   0.93631   1.000
    O18     O    0.61784   0.94014   0.93821   1.000
    O19     O    0.61071   0.11537   0.99989   1.000
    O20     O    0.70006   0.15062   0.99950   1.000
    N21     N    0.06098   0.54790   0.45451   1.000
    O22     O    0.13364   0.44269   0.43836   1.000
    O23     O    0.05138   0.65357   0.50018   1.000
    O24     O    0.03914   0.41594   0.43793   1.000
    O25     O    0.14147   0.61649   0.50106   1.000
    N26     N    0.86622   0.32802   0.24978   1.000
    O27     O    0.83511   0.31383   0.32605   1.000
    O28     O    0.83448   0.31248   0.17360   1.000
    N29     N    0.63702   0.67225   0.74965   1.000
    O30     O    0.66816   0.68889   0.67359   1.000
    O31     O    0.58252   0.71964   0.81697   1.000
    O32     O    0.66889   0.68585   0.82585   1.000
    N33     N    0.44088   0.45295   0.95482   1.000
    O34     O    0.46352   0.58509   0.93872   1.000
    O35     O    0.36000   0.38452   0.00077   1.000
    O36     O    0.44847   0.34773   0.00024   1.000
    O37     O    0.36905   0.55879   0.93881   1.000
    N38     N    0.44265   0.45568   0.54566   1.000
    O39     O    0.45039   0.35003   0.49993   1.000
    O40     O    0.37009   0.56101   0.56178   1.000
    O41     O    0.36212   0.38714   0.49929   1.000
    O42     O    0.46459   0.58764   0.56223   1.000
    N43     N    0.81098   0.95632   0.45342   1.000
    O44     O    0.79027   0.08837   0.43651   1.000
    O45     O    0.88426   0.06109   0.43836   1.000
    O46     O    0.88917   0.88563   0.50004   1.000
    O47     O    0.80139   0.85033   0.49948   1.000
    N48     N    0.06138   0.54674   0.04550   1.000
    O49     O    0.14239   0.61458   0.99965   1.000
    O50     O    0.13273   0.44090   0.06164   1.000
    O51     O    0.05252   0.65165   0.99982   1.000
    O52     O    0.03810   0.41487   0.06198   1.000
    N53     N    0.11718   0.17623   0.24986   1.000
    O54     O    0.08547   0.19103   0.32625   1.000
    O55     O    0.08506   0.19075   0.17355   1.000
    N56     N    0.19042   0.04461   0.95381   1.000
    O57     O    0.21145   0.91275   0.93710   1.000
    O58     O    0.11585   0.94019   0.93876   1.000
    O59     O    0.11046   0.11544   0.00016   1.000
    O60     O    0.19987   0.15088   0.99969   1.000
    N61     N    0.19291   0.04734   0.54659   1.000
    O62     O    0.11777   0.94253   0.56176   1.000
    O63     O    0.21367   0.91546   0.56333   1.000
    O64     O    0.11282   0.11795   0.50010   1.000
    O65     O    0.20243   0.15342   0.50050   1.000
    N66     N    0.56158   0.54684   0.04538   1.000
    O67     O    0.63288   0.44086   0.06156   1.000
    O68     O    0.55431   0.65183   0.99968   1.000
    O69     O    0.64246   0.61450   0.99925   1.000
    O70     O    0.53831   0.41507   0.06190   1.000
    N71     N    0.94263   0.45570   0.54560   1.000
    O72     O    0.86210   0.38714   0.49927   1.000
    O73     O    0.95039   0.35005   0.49974   1.000
    O74     O    0.96268   0.58765   0.56223   1.000
    O75     O    0.87004   0.56103   0.56167   1.000
    N76     N    0.13764   0.67257   0.74980   1.000
    O77     O    0.08091   0.72212   0.68360   1.000
    O78     O    0.16853   0.68906   0.67374   1.000
    O79     O    0.16940   0.68607   0.82620   1.000
    O80     O    0.08146   0.71984   0.81718   1.000
    N81     N    0.31092   0.95631   0.45347   1.000
    O82     O    0.29025   0.08836   0.43674   1.000
    O83     O    0.38423   0.06108   0.43839   1.000
    O84     O    0.39101   0.88563   0.50007   1.000
    O85     O    0.30137   0.85033   0.49955   1.000
    N86     N    0.61719   0.17624   0.24984   1.000
    O87     O    0.58547   0.19103   0.32623   1.000
    O88     O    0.58518   0.19084   0.17348   1.000
    N89     N    0.81060   0.95457   0.04710   1.000
    O90     O    0.80096   0.84855   0.00074   1.000
    O91     O    0.88918   0.88334   0.00107   1.000
    O92     O    0.78952   0.08651   0.06352   1.000
    O93     O    0.88355   0.05928   0.06235   1.000
    N94     N    0.94102   0.45256   0.95488   1.000
    O95     O    0.86007   0.38421   0.00080   1.000
    O96     O    0.86921   0.55846   0.93861   1.000
    O97     O    0.94842   0.34736   0.00032   1.000
    O98     O    0.96206   0.58468   0.93883   1.000
    N99     N    0.69286   0.04734   0.54658   1.000
    O100    O    0.61963   0.94253   0.56175   1.000
    O101    O    0.61280   0.11794   0.50008   1.000
    O102    O    0.70240   0.15342   0.50050   1.000
    O103    O    0.71361   0.91545   0.56328   1.000
    N104    N    0.31148   0.95501   0.04671   1.000
    O105    O    0.30223   0.84897   0.00071   1.000
    O106    O    0.28976   0.08684   0.06331   1.000
    O107    O    0.39172   0.88430   0.00080   1.000
    O108    O    0.38395   0.05993   0.06209   1.000
    N109    N    0.38666   0.82629   0.75068   1.000
    O110    O    0.33211   0.77844   0.81718   1.000
    O111    O    0.41830   0.81193   0.67419   1.000
    O112    O    0.41824   0.81141   0.82704   1.000
    N113    N    0.56089   0.54789   0.45439   1.000
    O114    O    0.55321   0.65357   0.50012   1.000
    O115    O    0.63358   0.44270   0.43830   1.000
    O116    O    0.64138   0.61649   0.50092   1.000
    O117    O    0.53909   0.41592   0.43787   1.000
    N118    N    0.36630   0.32803   0.24977   1.000
    O119    O    0.33516   0.31382   0.32603   1.000
    O120    O    0.33452   0.31258   0.17358   1.000
    N121    N    0.88674   0.82505   0.75054   1.000
    O122    O    0.91638   0.80987   0.82699   1.000
    O123    O    0.91647   0.81133   0.67409   1.000
    O124    O    0.90907   0.28909   0.32135   1.000
    O125    O    0.40912   0.28908   0.32132   1.000
    O126    O    0.15939   0.21489   0.17859   1.000
    O127    O    0.15989   0.21541   0.32121   1.000
    O128    O    0.40880   0.28841   0.17840   1.000
    O129    O    0.84379   0.78564   0.82159   1.000
    O130    O    0.59421   0.71322   0.67853   1.000
    O131    O    0.65988   0.21541   0.32120   1.000
    O132    O    0.90867   0.28831   0.17846   1.000
    O133    O    0.65943   0.21481   0.17857   1.000
    O134    O    0.34387   0.78768   0.67917   1.000
    O135    O    0.84390   0.78706   0.67901   1.000
loop_
    _geom_bond_atom_site_label_1
    _geom_bond_atom_site_label_2
    _geom_bond_distance
    _geom_bond_site_symmetry_2
    _ccdc_geom_bond_type
    N16    O17       2.28851  1_545   S
    Zr7    O17       3.36681      .   S
    N16    O18       2.18171  1_545   S
    Zr12   O18       3.29502      .   S
    N16    O19       2.18543      .   S
    Zr5    O19       3.32571  1_554   S
    N16    O20       2.18865      .   S
    Zr15   O20       3.13393  1_554   S
    N21    O22       2.17776      .   S
    Zr2    O22       3.28749      .   S
    N21    O23       2.17330      .   S
    Zr1    O23       3.12299      .   S
    N21    O24       2.29647      .   S
    Zr8    O24       3.38678  1_655   S
    N21    O25       2.18065      .   S
    Zr10   O25       3.32415      .   S
    N26    O27       2.15800      .   S
    Zr3    O27       3.07461      .   S
    N26    O28       2.15780      .   S
    Zr15   O28       3.07525      .   S
    N29    O30       2.15780      .   S
    Zr11   O30       3.07424      .   S
    N29    O31       2.19466      .   S
    Zr12   O31       3.34951      .   S
    N29    O32       2.15493      .   S
    Zr7    O32       3.07003      .   S
    N33    O34       2.30065      .   S
    Zr12   O34       3.39611      .   S
    N33    O35       2.17968  1_556   S
    Zr14   O35       3.32035      .   S
    N33    O36       2.16327  1_556   S
    Zr5    O36       3.08114      .   S
    N33    O37       2.17758      .   S
    Zr6    O37       3.28369      .   S
    N38    O39       2.17187      .   S
    Zr9    O39       3.09705      .   S
    N38    O40       2.17847      .   S
    Zr10   O40       3.28944      .   S
    N38    O41       2.17770      .   S
    Zr2    O41       3.32044      .   S
    N38    O42       2.29682      .   S
    Zr0    O42       3.38787      .   S
    N43    O44       2.29072  1_565   S
    Zr3    O44       3.37191      .   S
    N43    O45       2.19315  1_565   S
    Zr8    O45       3.31141      .   S
    N43    O46       2.16436      .   S
    Zr1    O46       3.26707  1_455   S
    N43    O47       2.18890      .   S
    Zr11   O47       3.13415      .   S
    N48    O49       2.17420  1_554   S
    Zr6    O49       3.31520      .   S
    N48    O50       2.17401      .   S
    Zr14   O50       3.28041      .   S
    N48    O51       2.16426  1_554   S
    Zr13   O51       3.09881      .   S
    N48    O52       2.30000      .   S
    Zr4    O52       3.39618  1_655   S
    N53    O54       2.16304      .   S
    Zr8    O54       3.08443  1_655   S
    N53    O55       2.16006      .   S
    Zr4    O55       3.07774  1_655   S
    N56    O57       2.28669  1_545   S
    Zr6    O57       3.36400      .   S
    N56    O58       2.19840  1_545   S
    Zr13   O58       3.34683      .   S
    N56    O59       2.18148  1_556   S
    Zr4    O59       3.32035  1_655   S
    N56    O60       2.18671      .   S
    Zr14   O60       3.13199  1_554   S
    N61    O62       2.21182  1_545   S
    Zr1    O62       3.36778      .   S
    N61    O63       2.28725  1_545   S
    Zr10   O63       3.36967      .   S
    N61    O64       2.18039      .   S
    Zr8    O64       3.31565  1_655   S
    N61    O65       2.19048      .   S
    Zr2    O65       3.13698      .   S
    N66    O67       2.17575      .   S
    Zr15   O67       3.28322      .   S
    N66    O68       2.16421  1_554   S
    Zr12   O68       3.08080      .   S
    N66    O69       2.17558  1_554   S
    Zr7    O69       3.31894      .   S
    N66    O70       2.29872      .   S
    Zr5    O70       3.39338      .   S
    N71    O72       2.17728      .   S
    Zr3    O72       3.31993      .   S
    N71    O73       2.17412      .   S
    Zr8    O73       3.09310      .   S
    N71    O74       2.29184      .   S
    Zr1    O74       3.36794  1_455   S
    N71    O75       2.17844      .   S
    Zr11   O75       3.28945      .   S
    N76    O77       2.19546      .   S
    Zr1    O77       3.36382      .   S
    N76    O78       2.15653      .   S
    Zr10   O78       3.07160      .   S
    N76    O79       2.15946      .   S
    Zr6    O79       3.07931      .   S
    N76    O80       2.20694      .   S
    Zr13   O80       3.38198      .   S
    N81    O82       2.28969  1_565   S
    Zr2    O82       3.37250      .   S
    N81    O83       2.19342  1_565   S
    Zr9    O83       3.31168      .   S
    N81    O84       2.18281      .   S
    Zr0    O84       3.32050      .   S
    N81    O85       2.18910      .   S
    Zr10   O85       3.13488      .   S
    N86    O87       2.16314      .   S
    Zr9    O87       3.08457      .   S
    N86    O88       2.16072      .   S
    Zr5    O88       3.07878      .   S
    N89    O90       2.19104      .   S
    Zr7    O90       3.14173  1_556   S
    N89    O91       2.16623      .   S
    Zr13   O91       3.27025  1_456   S
    N89    O92       2.28659  1_565   S
    Zr15   O92       3.36580      .   S
    N89    O93       2.18809  1_565   S
    Zr4    O93       3.30461      .   S
    N94    O95       2.17925  1_556   S
    Zr15   O95       3.32012      .   S
    N94    O96       2.17960      .   S
    Zr7    O96       3.28705      .   S
    N94    O97       2.16325  1_556   S
    Zr4    O97       3.08078      .   S
    N94    O98       2.29552      .   S
    Zr13   O98       3.37832  1_455   S
    N99    O100      2.19374  1_545   S
    Zr0    O100      3.31219      .   S
    N99    O101      2.18031      .   S
    Zr9    O101      3.31552      .   S
    N99    O102      2.19045      .   S
    Zr3    O102      3.13688      .   S
    N99    O103      2.28702  1_545   S
    Zr11   O103      3.36935      .   S
    N104   O105      2.18523      .   S
    Zr6    O105      3.13030  1_556   S
    N104   O106      2.28725  1_565   S
    Zr14   O106      3.36721      .   S
    N104   O107      2.17632      .   S
    Zr12   O107      3.31257  1_556   S
    N104   O108      2.18710  1_565   S
    Zr5    O108      3.29970      .   S
    N109   O110      2.18771      .   S
    Zr6    O110      3.33873      .   S
    N109   O111      2.16480      .   S
    Zr0    O111      3.08674      .   S
    N109   O112      2.15952      .   S
    Zr12   O112      3.07449      .   S
    N113   O114      2.17235      .   S
    Zr0    O114      3.09975      .   S
    N113   O115      2.17757      .   S
    Zr3    O115      3.28750      .   S
    N113   O116      2.18038      .   S
    Zr11   O116      3.32330      .   S
    N113   O117      2.29625      .   S
    Zr9    O117      3.38663      .   S
    N118   O119      2.15807      .   S
    Zr2    O119      3.07501      .   S
    N118   O120      2.15776      .   S
    Zr14   O120      3.07450      .   S
    N121   O122      2.15522      .   S
    Zr13   O122      3.03960  1_455   S
    N121   O123      2.15488      .   S
    Zr1    O123      3.03756  1_455   S
    Zr8    O124      3.34279      .   S
    N26    O124      2.17452      .   S
    Zr9    O125      3.34245      .   S
    N118   O125      2.17427      .   S
    Zr14   O126      3.32964      .   S
    N53    O126      2.17054      .   S
    Zr2    O127      3.34155      .   S
    N53    O127      2.17291      .   S
    Zr5    O128      3.33626      .   S
    N118   O128      2.17343      .   S
    Zr7    O129      3.33881      .   S
    N121   O129      2.17314      .   S
    Zr0    O130      3.33398      .   S
    N29    O130      2.17404      .   S
    Zr3    O131      3.34199      .   S
    N86    O131      2.17308      .   S
    Zr4    O132      3.33470      .   S
    N26    O132      2.17250      .   S
    Zr15   O133      3.32785      .   S
    N86    O133      2.17014      .   S
    Zr10   O134      3.33996      .   S
    N109   O134      2.17444      .   S
    Zr11   O135      3.33761      .   S
    N121   O135      2.17190      .   S
