# CIF file generated by openbabel 2.4.90, see http://openbabel.sf.net
data_I
_chemical_name_common ''
_cell_length_a 16.645
_cell_length_b 16.816
_cell_length_c 27.26
_cell_angle_alpha 90.069
_cell_angle_beta 90.16
_cell_angle_gamma 89.401
_space_group_name_H-M_alt 'P 1'
_space_group_name_Hall 'P 1'
loop_
    _symmetry_equiv_pos_as_xyz
    x,y,z
loop_
    _atom_site_label
    _atom_site_type_symbol
    _atom_site_fract_x
    _atom_site_fract_y
    _atom_site_fract_z
    _atom_site_occupancy
    Zr0     Zr   0.50759   0.78277   0.57661   1.000
    Zr1     Zr   0.00000   0.78276   0.57662   1.000
    Zr2     Zr   0.24731   0.28356   0.42321   1.000
    Zr3     Zr   0.74728   0.28357   0.42322   1.000
    Zr4     Zr   0.99477   0.21940   0.07638   1.000
    Zr5     Zr   0.49506   0.21973   0.07624   1.000
    Zr6     Zr   0.25624   0.71836   0.92399   1.000
    Zr7     Zr   0.75617   0.71795   0.92312   1.000
    Zr8     Zr   0.99641   0.22078   0.42374   1.000
    Zr9     Zr   0.49639   0.22076   0.42372   1.000
    Zr10    Zr   0.25665   0.72046   0.57694   1.000
    Zr11    Zr   0.75653   0.72044   0.57678   1.000
    Zr12    Zr   0.50666   0.78064   0.92446   1.000
    Zr13    Zr   0.00000   0.78026   0.92464   1.000
    Zr14    Zr   0.24532   0.28146   0.07664   1.000
    Zr15    Zr   0.74534   0.28114   0.07663   1.000
    N16     N    0.69076   0.04443   0.95341   1.000
    O17     O    0.71179   0.91259   0.93631   1.000
    O18     O    0.61784   0.94014   0.93821   1.000
    O19     O    0.61071   0.11537   0.99989   1.000
    O20     O    0.70006   0.15062   0.99950   1.000
    N21     N    0.06098   0.54790   0.45451   1.000
    O22     O    0.13364   0.44269   0.43836   1.000
    O23     O    0.05138   0.65357   0.50018   1.000
    O24     O    0.03914   0.41594   0.43793   1.000
    O25     O    0.14147   0.61649   0.50106   1.000
    N26     N    0.86622   0.32802   0.24978   1.000
    O27     O    0.83511   0.31383   0.32605   1.000
    O28     O    0.89739   0.29813   0.32618   1.000
    O29     O    0.92050   0.27957   0.18339   1.000
    O30     O    0.92076   0.28005   0.31651   1.000
    O31     O    0.83448   0.31248   0.17360   1.000
    O32     O    0.89684   0.29704   0.17353   1.000
    N33     N    0.63702   0.67225   0.74965   1.000
    O34     O    0.66816   0.68889   0.67359   1.000
    O35     O    0.60593   0.70448   0.67355   1.000
    O36     O    0.58249   0.72197   0.68350   1.000
    O37     O    0.58252   0.71964   0.81697   1.000
    O38     O    0.66889   0.68585   0.82585   1.000
    N39     N    0.44088   0.45295   0.95482   1.000
    O40     O    0.46352   0.58509   0.93872   1.000
    O41     O    0.36000   0.38452   0.00077   1.000
    O42     O    0.44847   0.34773   0.00024   1.000
    O43     O    0.36905   0.55879   0.93881   1.000
    N44     N    0.44265   0.45568   0.54566   1.000
    O45     O    0.45039   0.35003   0.49993   1.000
    O46     O    0.37009   0.56101   0.56178   1.000
    O47     O    0.36212   0.38714   0.49929   1.000
    O48     O    0.46459   0.58764   0.56223   1.000
    N49     N    0.81098   0.95632   0.45342   1.000
    O50     O    0.79027   0.08837   0.43651   1.000
    O51     O    0.88426   0.06109   0.43836   1.000
    O52     O    0.88917   0.88563   0.50004   1.000
    O53     O    0.80139   0.85033   0.49948   1.000
    N54     N    0.06138   0.54674   0.04550   1.000
    O55     O    0.14239   0.61458   0.99965   1.000
    O56     O    0.13273   0.44090   0.06164   1.000
    O57     O    0.05252   0.65165   0.99982   1.000
    O58     O    0.03810   0.41487   0.06198   1.000
    N59     N    0.11718   0.17623   0.24986   1.000
    O60     O    0.17158   0.22409   0.31631   1.000
    O61     O    0.08547   0.19103   0.32625   1.000
    O62     O    0.14820   0.20673   0.32612   1.000
    O63     O    0.17109   0.22351   0.18357   1.000
    O64     O    0.08506   0.19075   0.17355   1.000
    O65     O    0.14770   0.20627   0.17361   1.000
    N66     N    0.19042   0.04461   0.95381   1.000
    O67     O    0.21145   0.91275   0.93710   1.000
    O68     O    0.11585   0.94019   0.93876   1.000
    O69     O    0.11046   0.11544   0.00016   1.000
    O70     O    0.19987   0.15088   0.99969   1.000
    N71     N    0.19291   0.04734   0.54659   1.000
    O72     O    0.11777   0.94253   0.56176   1.000
    O73     O    0.21367   0.91546   0.56333   1.000
    O74     O    0.11282   0.11795   0.50010   1.000
    O75     O    0.20243   0.15342   0.50050   1.000
    N76     N    0.56158   0.54684   0.04538   1.000
    O77     O    0.63288   0.44086   0.06156   1.000
    O78     O    0.55431   0.65183   0.99968   1.000
    O79     O    0.64246   0.61450   0.99925   1.000
    O80     O    0.53831   0.41507   0.06190   1.000
    N81     N    0.94263   0.45570   0.54560   1.000
    O82     O    0.86210   0.38714   0.49927   1.000
    O83     O    0.95039   0.35005   0.49974   1.000
    O84     O    0.96268   0.58765   0.56223   1.000
    O85     O    0.87004   0.56103   0.56167   1.000
    N86     N    0.13764   0.67257   0.74980   1.000
    O87     O    0.08091   0.72212   0.68360   1.000
    O88     O    0.16853   0.68906   0.67374   1.000
    O89     O    0.16940   0.68607   0.82620   1.000
    O90     O    0.08146   0.71984   0.81718   1.000
    N91     N    0.31092   0.95631   0.45347   1.000
    O92     O    0.29025   0.08836   0.43674   1.000
    O93     O    0.38423   0.06108   0.43839   1.000
    O94     O    0.39101   0.88563   0.50007   1.000
    O95     O    0.30137   0.85033   0.49955   1.000
    N96     N    0.61719   0.17624   0.24984   1.000
    O97     O    0.67112   0.22343   0.18356   1.000
    O98     O    0.58547   0.19103   0.32623   1.000
    O99     O    0.64820   0.20673   0.32610   1.000
    O100    O    0.58518   0.19084   0.17348   1.000
    O101    O    0.64775   0.20619   0.17358   1.000
    O102    O    0.67157   0.22410   0.31629   1.000
    N103    N    0.81060   0.95457   0.04710   1.000
    O104    O    0.80096   0.84855   0.00074   1.000
    O105    O    0.88918   0.88334   0.00107   1.000
    O106    O    0.78952   0.08651   0.06352   1.000
    O107    O    0.88355   0.05928   0.06235   1.000
    N108    N    0.94102   0.45256   0.95488   1.000
    O109    O    0.86007   0.38421   0.00080   1.000
    O110    O    0.86921   0.55846   0.93861   1.000
    O111    O    0.94842   0.34736   0.00032   1.000
    O112    O    0.96206   0.58468   0.93883   1.000
    N113    N    0.69286   0.04734   0.54658   1.000
    O114    O    0.61963   0.94253   0.56175   1.000
    O115    O    0.61280   0.11794   0.50008   1.000
    O116    O    0.70240   0.15342   0.50050   1.000
    O117    O    0.71361   0.91545   0.56328   1.000
    N118    N    0.31148   0.95501   0.04671   1.000
    O119    O    0.30223   0.84897   0.00071   1.000
    O120    O    0.28976   0.08684   0.06331   1.000
    O121    O    0.39172   0.88430   0.00080   1.000
    O122    O    0.38395   0.05993   0.06209   1.000
    N123    N    0.38666   0.82629   0.75068   1.000
    O124    O    0.33211   0.77844   0.81718   1.000
    O125    O    0.41830   0.81193   0.67419   1.000
    O126    O    0.35557   0.79635   0.67427   1.000
    O127    O    0.41824   0.81141   0.82704   1.000
    O128    O    0.33217   0.77900   0.68407   1.000
    N129    N    0.56089   0.54789   0.45439   1.000
    O130    O    0.55321   0.65357   0.50012   1.000
    O131    O    0.63358   0.44270   0.43830   1.000
    O132    O    0.64138   0.61649   0.50092   1.000
    O133    O    0.53909   0.41592   0.43787   1.000
    N134    N    0.36630   0.32803   0.24977   1.000
    O135    O    0.42065   0.27968   0.18332   1.000
    O136    O    0.33516   0.31382   0.32603   1.000
    O137    O    0.39743   0.29812   0.32616   1.000
    O138    O    0.33452   0.31258   0.17358   1.000
    O139    O    0.39696   0.29714   0.17348   1.000
    O140    O    0.42080   0.28003   0.31649   1.000
    N141    N    0.88674   0.82505   0.75054   1.000
    O142    O    0.91638   0.80987   0.82699   1.000
    O143    O    0.85543   0.79429   0.82661   1.000
    O144    O    0.83215   0.77700   0.81657   1.000
    O145    O    0.83220   0.77836   0.68389   1.000
    O146    O    0.91647   0.81133   0.67409   1.000
    O147    O    0.85560   0.79575   0.67413   1.000
loop_
    _geom_bond_atom_site_label_1
    _geom_bond_atom_site_label_2
    _geom_bond_distance
    _geom_bond_site_symmetry_2
    _ccdc_geom_bond_type
    N16    O17       2.28851  1_545   S
    Zr7    O17       3.36681      .   S
    N16    O18       2.18171  1_545   S
    Zr12   O18       3.29502      .   S
    N16    O19       2.18543      .   S
    Zr5    O19       3.32571  1_554   S
    N16    O20       2.18865      .   S
    Zr15   O20       3.13393  1_554   S
    N21    O22       2.17776      .   S
    Zr2    O22       3.28749      .   S
    N21    O23       2.17330      .   S
    Zr1    O23       3.12299      .   S
    N21    O24       2.29647      .   S
    Zr8    O24       3.38678  1_655   S
    N21    O25       2.18065      .   S
    Zr10   O25       3.32415      .   S
    N26    O27       2.15800      .   S
    Zr3    O27       3.07461      .   S
    N26    O28       2.20217      .   S
    Zr8    O28       3.37953      .   S
    N26    O29       2.17848      .   S
    Zr4    O29       3.32395      .   S
    N26    O30       2.18246      .   S
    Zr8    O30       3.32910      .   S
    N26    O31       2.15780      .   S
    Zr15   O31       3.07525      .   S
    N26    O32       2.20209      .   S
    Zr4    O32       3.36858      .   S
    N33    O34       2.15780      .   S
    Zr11   O34       3.07424      .   S
    N33    O35       2.20355      .   S
    Zr0    O35       3.36676      .   S
    N33    O36       2.18001      .   S
    Zr0    O36       3.32430      .   S
    N33    O37       2.19466      .   S
    Zr12   O37       3.34951      .   S
    N33    O38       2.15493      .   S
    Zr7    O38       3.07003      .   S
    N39    O40       2.30065      .   S
    Zr12   O40       3.39611      .   S
    N39    O41       2.17968  1_556   S
    Zr14   O41       3.32035      .   S
    N39    O42       2.16327  1_556   S
    Zr5    O42       3.08114      .   S
    N39    O43       2.17758      .   S
    Zr6    O43       3.28369      .   S
    N44    O45       2.17187      .   S
    Zr9    O45       3.09705      .   S
    N44    O46       2.17847      .   S
    Zr10   O46       3.28944      .   S
    N44    O47       2.17770      .   S
    Zr2    O47       3.32044      .   S
    N44    O48       2.29682      .   S
    Zr0    O48       3.38787      .   S
    N49    O50       2.29072  1_565   S
    Zr3    O50       3.37191      .   S
    N49    O51       2.19315  1_565   S
    Zr8    O51       3.31141      .   S
    N49    O52       2.16436      .   S
    Zr1    O52       3.26707  1_455   S
    N49    O53       2.18890      .   S
    Zr11   O53       3.13415      .   S
    N54    O55       2.17420  1_554   S
    Zr6    O55       3.31520      .   S
    N54    O56       2.17401      .   S
    Zr14   O56       3.28041      .   S
    N54    O57       2.16426  1_554   S
    Zr13   O57       3.09881      .   S
    N54    O58       2.30000      .   S
    Zr4    O58       3.39618  1_655   S
    N59    O60       2.17969      .   S
    Zr2    O60       3.32865      .   S
    N59    O61       2.16304      .   S
    Zr8    O61       3.08443  1_655   S
    N59    O62       2.20175      .   S
    Zr2    O62       3.37752      .   S
    N59    O63       2.17492      .   S
    Zr14   O63       3.32055      .   S
    N59    O64       2.16006      .   S
    Zr4    O64       3.07774  1_655   S
    N59    O65       2.20175      .   S
    Zr14   O65       3.36191      .   S
    N66    O67       2.28669  1_545   S
    Zr6    O67       3.36400      .   S
    N66    O68       2.19840  1_545   S
    Zr13   O68       3.34683      .   S
    N66    O69       2.18148  1_556   S
    Zr4    O69       3.32035  1_655   S
    N66    O70       2.18671      .   S
    Zr14   O70       3.13199  1_554   S
    N71    O72       2.21182  1_545   S
    Zr1    O72       3.36778      .   S
    N71    O73       2.28725  1_545   S
    Zr10   O73       3.36967      .   S
    N71    O74       2.18039      .   S
    Zr8    O74       3.31565  1_655   S
    N71    O75       2.19048      .   S
    Zr2    O75       3.13698      .   S
    N76    O77       2.17575      .   S
    Zr15   O77       3.28322      .   S
    N76    O78       2.16421  1_554   S
    Zr12   O78       3.08080      .   S
    N76    O79       2.17558  1_554   S
    Zr7    O79       3.31894      .   S
    N76    O80       2.29872      .   S
    Zr5    O80       3.39338      .   S
    N81    O82       2.17728      .   S
    Zr3    O82       3.31993      .   S
    N81    O83       2.17412      .   S
    Zr8    O83       3.09310      .   S
    N81    O84       2.29184      .   S
    Zr1    O84       3.36794  1_455   S
    N81    O85       2.17844      .   S
    Zr11   O85       3.28945      .   S
    N86    O87       2.19546      .   S
    Zr1    O87       3.36382      .   S
    N86    O88       2.15653      .   S
    Zr10   O88       3.07160      .   S
    N86    O89       2.15946      .   S
    Zr6    O89       3.07931      .   S
    N86    O90       2.20694      .   S
    Zr13   O90       3.38198      .   S
    N91    O92       2.28969  1_565   S
    Zr2    O92       3.37250      .   S
    N91    O93       2.19342  1_565   S
    Zr9    O93       3.31168      .   S
    N91    O94       2.18281      .   S
    Zr0    O94       3.32050      .   S
    N91    O95       2.18910      .   S
    Zr10   O95       3.13488      .   S
    N96    O97       2.17416      .   S
    Zr15   O97       3.31927      .   S
    N96    O98       2.16314      .   S
    Zr9    O98       3.08457      .   S
    N96    O99       2.20196      .   S
    Zr3    O99       3.37791      .   S
    N96    O100      2.16072      .   S
    Zr5    O100      3.07878      .   S
    N96    O101      2.20170      .   S
    Zr15   O101      3.35963      .   S
    N96    O102      2.17982      .   S
    Zr3    O102      3.32914      .   S
    N103   O104      2.19104      .   S
    Zr7    O104      3.14173  1_556   S
    N103   O105      2.16623      .   S
    Zr13   O105      3.27025  1_456   S
    N103   O106      2.28659  1_565   S
    Zr15   O106      3.36580      .   S
    N103   O107      2.18809  1_565   S
    Zr4    O107      3.30461      .   S
    N108   O109      2.17925  1_556   S
    Zr15   O109      3.32012      .   S
    N108   O110      2.17960      .   S
    Zr7    O110      3.28705      .   S
    N108   O111      2.16325  1_556   S
    Zr4    O111      3.08078      .   S
    N108   O112      2.29552      .   S
    Zr13   O112      3.37832  1_455   S
    N113   O114      2.19374  1_545   S
    Zr0    O114      3.31219      .   S
    N113   O115      2.18031      .   S
    Zr9    O115      3.31552      .   S
    N113   O116      2.19045      .   S
    Zr3    O116      3.13688      .   S
    N113   O117      2.28702  1_545   S
    Zr11   O117      3.36935      .   S
    N118   O119      2.18523      .   S
    Zr6    O119      3.13030  1_556   S
    N118   O120      2.28725  1_565   S
    Zr14   O120      3.36721      .   S
    N118   O121      2.17632      .   S
    Zr12   O121      3.31257  1_556   S
    N118   O122      2.18710  1_565   S
    Zr5    O122      3.29970      .   S
    N123   O124      2.18771      .   S
    Zr6    O124      3.33873      .   S
    N123   O125      2.16480      .   S
    Zr0    O125      3.08674      .   S
    N123   O126      2.20388      .   S
    Zr10   O126      3.37500      .   S
    N123   O127      2.15952      .   S
    Zr12   O127      3.07449      .   S
    N123   O128      2.18059      .   S
    Zr10   O128      3.32801      .   S
    N129   O130      2.17235      .   S
    Zr0    O130      3.09975      .   S
    N129   O131      2.17757      .   S
    Zr3    O131      3.28750      .   S
    N129   O132      2.18038      .   S
    Zr11   O132      3.32330      .   S
    N129   O133      2.29625      .   S
    Zr9    O133      3.38663      .   S
    N134   O135      2.17958      .   S
    Zr5    O135      3.32531      .   S
    N134   O136      2.15807      .   S
    Zr2    O136      3.07501      .   S
    N134   O137      2.20195      .   S
    Zr9    O137      3.37915      .   S
    N134   O138      2.15776      .   S
    Zr14   O138      3.07450      .   S
    N134   O139      2.20282      .   S
    Zr5    O139      3.37031      .   S
    N134   O140      2.18219      .   S
    Zr9    O140      3.32880      .   S
    N141   O142      2.15522      .   S
    Zr13   O142      3.03960  1_455   S
    N141   O143      2.20312      .   S
    Zr7    O143      3.37279      .   S
    N141   O144      2.17874      .   S
    Zr7    O144      3.32794      .   S
    N141   O145      2.17787      .   S
    Zr11   O145      3.32550      .   S
    N141   O146      2.15488      .   S
    Zr1    O146      3.03756  1_455   S
    N141   O147      2.20155      .   S
    Zr11   O147      3.37284      .   S
