# CIF file generated by openbabel 2.4.90, see http://openbabel.sf.net
data_I
_chemical_name_common 'VESTA_phase_1'
_cell_length_a 20.652
_cell_length_b 13.157
_cell_length_c 17.994
_cell_angle_alpha 79.403
_cell_angle_beta 86.853
_cell_angle_gamma 78.876
_space_group_name_H-M_alt 'P 1'
_space_group_name_Hall 'P 1'
loop_
    _symmetry_equiv_pos_as_xyz
    x,y,z
loop_
    _atom_site_label
    _atom_site_type_symbol
    _atom_site_fract_x
    _atom_site_fract_y
    _atom_site_fract_z
    _atom_site_occupancy
    Cd0     Cd   0.46681   0.91203   0.79877   1.000
    Cd1     Cd   0.96680   0.91203   0.79877   1.000
    Cd2     Cd   0.03318   0.08797   0.20123   1.000
    Cd3     Cd   0.53317   0.08798   0.20120   1.000
    Cd4     Cd   0.25000   0.50000   0.50000   1.000
    Cd5     Cd   0.74999   0.50000   0.50000   1.000
    H6      H    0.28997   0.19793   0.69439   1.000
    H7      H    0.78996   0.19793   0.69439   1.000
    H8      H    0.22334   0.91414   0.80061   1.000
    H9      H    0.72333   0.91413   0.80061   1.000
    H10     H    0.08250   0.18597   0.70488   1.000
    H11     H    0.58249   0.18597   0.70489   1.000
    H12     H    0.10233   0.75722   0.73467   1.000
    H13     H    0.60232   0.75722   0.73467   1.000
    H14     H    0.09605   0.57897   0.67200   1.000
    H15     H    0.59604   0.57897   0.67201   1.000
    H16     H    0.40435   0.71707   0.73939   1.000
    H17     H    0.90434   0.71706   0.73939   1.000
    H18     H    0.41781   0.57631   0.64659   1.000
    H19     H    0.91781   0.57630   0.64658   1.000
    H20     H    0.49948   0.51718   0.62561   1.000
    H21     H    0.99947   0.51717   0.62561   1.000
    H22     H    0.03677   0.47362   0.80343   1.000
    H23     H    0.53676   0.47362   0.80344   1.000
    H24     H    0.03215   0.31390   0.89760   1.000
    H25     H    0.53214   0.31390   0.89760   1.000
    H26     H    0.38486   0.23712   0.76782   1.000
    H27     H    0.88485   0.23712   0.76780   1.000
    H28     H    0.38571   0.40254   0.67596   1.000
    H29     H    0.88570   0.40254   0.67590   1.000
    H30     H    0.46951   0.09727   0.85840   1.000
    H31     H    0.96950   0.09727   0.85840   1.000
    H32     H    0.40639   0.15774   0.91495   1.000
    H33     H    0.90638   0.15774   0.91494   1.000
    H34     H    0.09563   0.10564   0.89844   1.000
    H35     H    0.59562   0.10565   0.89845   1.000
    H36     H    0.14001   0.07492   0.04604   1.000
    H37     H    0.64000   0.07493   0.04605   1.000
    H38     H    0.43210   0.15267   0.04992   1.000
    H39     H    0.93209   0.15267   0.04992   1.000
    H40     H    0.21002   0.80206   0.30561   1.000
    H41     H    0.71001   0.80206   0.30561   1.000
    H42     H    0.27664   0.08587   0.19939   1.000
    H43     H    0.77664   0.08586   0.19939   1.000
    H44     H    0.41750   0.81404   0.29510   1.000
    H45     H    0.91749   0.81403   0.29512   1.000
    H46     H    0.39766   0.24278   0.26534   1.000
    H47     H    0.89765   0.24278   0.26533   1.000
    H48     H    0.40394   0.42103   0.32800   1.000
    H49     H    0.90393   0.42103   0.32799   1.000
    H50     H    0.09564   0.28293   0.26061   1.000
    H51     H    0.59563   0.28293   0.26062   1.000
    H52     H    0.08218   0.42369   0.35342   1.000
    H53     H    0.58217   0.42369   0.35342   1.000
    H54     H    0.00052   0.48282   0.37439   1.000
    H55     H    0.50051   0.48282   0.37440   1.000
    H56     H    0.46323   0.52638   0.19657   1.000
    H57     H    0.96321   0.52637   0.19657   1.000
    H58     H    0.46784   0.68610   0.10241   1.000
    H59     H    0.96783   0.68609   0.10240   1.000
    H60     H    0.11513   0.76288   0.23218   1.000
    H61     H    0.61512   0.76289   0.23219   1.000
    H62     H    0.11428   0.59745   0.32404   1.000
    H63     H    0.61427   0.59746   0.32405   1.000
    H64     H    0.03048   0.90273   0.14160   1.000
    H65     H    0.53047   0.90273   0.14161   1.000
    H66     H    0.09360   0.84226   0.08506   1.000
    H67     H    0.59359   0.84227   0.08506   1.000
    H68     H    0.40436   0.89435   0.10156   1.000
    H69     H    0.90435   0.89435   0.10156   1.000
    H70     H    0.35998   0.92508   0.95396   1.000
    H71     H    0.85997   0.92507   0.95396   1.000
    H72     H    0.06790   0.84733   0.95008   1.000
    H73     H    0.56788   0.84733   0.95009   1.000
    H74     H    0.42265   0.50652   0.48120   1.000
    H75     H    0.92264   0.50652   0.48119   1.000
    H76     H    0.01726   0.33447   0.54727   1.000
    H77     H    0.51725   0.33447   0.54727   1.000
    H78     H    0.32897   0.24859   0.56013   1.000
    H79     H    0.82896   0.24859   0.56013   1.000
    H80     H    0.00305   0.16006   0.63205   1.000
    H81     H    0.50304   0.16006   0.63205   1.000
    H82     H    0.42477   0.12671   0.64262   1.000
    H83     H    0.92476   0.12671   0.64262   1.000
    H84     H    0.01589   0.95069   0.63827   1.000
    H85     H    0.51588   0.95069   0.63827   1.000
    H86     H    0.45149   0.18371   0.44258   1.000
    H87     H    0.95148   0.18371   0.44258   1.000
    H88     H    0.32706   0.70414   0.51116   1.000
    H89     H    0.82705   0.70413   0.51116   1.000
    H90     H    0.25554   0.71878   0.73540   1.000
    H91     H    0.75554   0.71879   0.73500   1.000
    H92     H    0.22535   0.54087   0.69000   1.000
    H93     H    0.72534   0.54088   0.69000   1.000
    H94     H    0.37366   0.82979   0.60515   1.000
    H95     H    0.87366   0.82978   0.60514   1.000
    H96     H    0.31229   0.86290   0.67360   1.000
    H97     H    0.81229   0.86290   0.67360   1.000
    H98     H    0.18680   0.91091   0.60547   1.000
    H99     H    0.68680   0.91090   0.60547   1.000
    H100    H    0.37249   0.95474   0.49471   1.000
    H101    H    0.87248   0.95474   0.49470   1.000
    H102    H    0.07734   0.49348   0.51880   1.000
    H103    H    0.57733   0.49348   0.51881   1.000
    H104    H    0.48274   0.66553   0.45270   1.000
    H105    H    0.98273   0.66552   0.45273   1.000
    H106    H    0.17103   0.75141   0.43980   1.000
    H107    H    0.67102   0.75141   0.43988   1.000
    H108    H    0.49695   0.83994   0.36790   1.000
    H109    H    0.99694   0.83994   0.36795   1.000
    H110    H    0.07523   0.87328   0.35738   1.000
    H111    H    0.57522   0.87329   0.35739   1.000
    H112    H    0.48411   0.04931   0.36173   1.000
    H113    H    0.98410   0.04931   0.36173   1.000
    H114    H    0.04851   0.81629   0.55742   1.000
    H115    H    0.54850   0.81629   0.55742   1.000
    H116    H    0.17294   0.29586   0.48883   1.000
    H117    H    0.67292   0.29586   0.48884   1.000
    H118    H    0.24446   0.28122   0.26460   1.000
    H119    H    0.74444   0.28122   0.26461   1.000
    H120    H    0.27465   0.45913   0.31000   1.000
    H121    H    0.77463   0.45913   0.31000   1.000
    H122    H    0.12633   0.17022   0.39485   1.000
    H123    H    0.62632   0.17021   0.39486   1.000
    H124    H    0.18771   0.13710   0.32640   1.000
    H125    H    0.68769   0.13710   0.32640   1.000
    H126    H    0.31319   0.08910   0.39453   1.000
    H127    H    0.81318   0.08910   0.39453   1.000
    H128    H    0.12750   0.04526   0.50529   1.000
    H129    H    0.62750   0.04526   0.50530   1.000
    C130    C    0.18481   0.20322   0.69483   1.000
    C131    C    0.68480   0.20322   0.69484   1.000
    C132    C    0.24998   0.15510   0.71153   1.000
    C133    C    0.74997   0.15510   0.71153   1.000
    C134    C    0.26424   0.05043   0.74969   1.000
    C135    C    0.76423   0.05043   0.74969   1.000
    C136    C    0.33431   0.99675   0.76663   1.000
    C137    C    0.83430   0.99675   0.76663   1.000
    C138    C    0.21265   0.99538   0.77120   1.000
    C139    C    0.71264   0.99538   0.77122   1.000
    C140    C    0.14713   0.04384   0.75544   1.000
    C141    C    0.64711   0.04384   0.75545   1.000
    C142    C    0.09240   0.98241   0.77798   1.000
    C143    C    0.59239   0.98241   0.77798   1.000
    C144    C    0.13337   0.14833   0.71727   1.000
    C145    C    0.63336   0.14833   0.71727   1.000
    C146    C    0.06055   0.72308   0.72474   1.000
    C147    C    0.56054   0.72308   0.72474   1.000
    C148    C    0.05818   0.63650   0.69326   1.000
    C149    C    0.55816   0.63650   0.69326   1.000
    C150    C    0.45714   0.70592   0.72873   1.000
    C151    C    0.95713   0.70592   0.72872   1.000
    C152    C    0.46640   0.54268   0.67130   1.000
    C153    C    0.96640   0.54268   0.67132   1.000
    C154    C    0.46179   0.44917   0.73303   1.000
    C155    C    0.96179   0.44917   0.73300   1.000
    C156    C    0.00221   0.42356   0.79596   1.000
    C157    C    0.50219   0.42356   0.79596   1.000
    C158    C    0.49993   0.33234   0.84907   1.000
    C159    C    0.99992   0.33234   0.84907   1.000
    C160    C    0.45821   0.26435   0.83916   1.000
    C161    C    0.95820   0.26435   0.83915   1.000
    C162    C    0.41709   0.29053   0.77628   1.000
    C163    C    0.91708   0.29053   0.77627   1.000
    C164    C    0.41835   0.38259   0.72420   1.000
    C165    C    0.91834   0.38259   0.72426   1.000
    C166    C    0.45636   0.16078   0.89151   1.000
    C167    C    0.95635   0.16078   0.89150   1.000
    C168    C    0.06919   0.11041   0.95173   1.000
    C169    C    0.56918   0.11041   0.95174   1.000
    C170    C    0.09027   0.09534   0.02461   1.000
    C171    C    0.59026   0.09535   0.02462   1.000
    C172    C    0.48270   0.13682   0.02917   1.000
    C173    C    0.98269   0.13682   0.02916   1.000
    C174    C    0.31519   0.79679   0.30517   1.000
    C175    C    0.81518   0.79678   0.30517   1.000
    C176    C    0.25002   0.84490   0.28848   1.000
    C177    C    0.75001   0.84489   0.28847   1.000
    C178    C    0.23576   0.94957   0.25031   1.000
    C179    C    0.73575   0.94957   0.25031   1.000
    C180    C    0.16568   0.00324   0.23337   1.000
    C181    C    0.66567   0.00324   0.23330   1.000
    C182    C    0.28734   0.00462   0.22878   1.000
    C183    C    0.78733   0.00461   0.22877   1.000
    C184    C    0.35286   0.95617   0.24456   1.000
    C185    C    0.85286   0.95616   0.24456   1.000
    C186    C    0.40759   0.01761   0.22203   1.000
    C187    C    0.90758   0.01759   0.22202   1.000
    C188    C    0.36662   0.85168   0.28274   1.000
    C189    C    0.86661   0.85167   0.28273   1.000
    C190    C    0.43944   0.27692   0.27520   1.000
    C191    C    0.93943   0.27692   0.27526   1.000
    C192    C    0.44182   0.36351   0.30674   1.000
    C193    C    0.94181   0.36350   0.30674   1.000
    C194    C    0.04285   0.29407   0.27127   1.000
    C195    C    0.54284   0.29408   0.27128   1.000
    C196    C    0.03359   0.45732   0.32868   1.000
    C197    C    0.53358   0.45732   0.32868   1.000
    C198    C    0.03820   0.55082   0.26697   1.000
    C199    C    0.53819   0.55083   0.26698   1.000
    C200    C    0.49779   0.57644   0.20405   1.000
    C201    C    0.99778   0.57644   0.20404   1.000
    C202    C    0.00006   0.66766   0.15093   1.000
    C203    C    0.50005   0.66766   0.15090   1.000
    C204    C    0.04178   0.73565   0.16085   1.000
    C205    C    0.54177   0.73565   0.16085   1.000
    C206    C    0.08290   0.70947   0.22372   1.000
    C207    C    0.58289   0.70948   0.22373   1.000
    C208    C    0.08164   0.61741   0.27574   1.000
    C209    C    0.58164   0.61741   0.27574   1.000
    C210    C    0.04363   0.83922   0.10850   1.000
    C211    C    0.54362   0.83922   0.10850   1.000
    C212    C    0.43080   0.88959   0.04827   1.000
    C213    C    0.93079   0.88959   0.04827   1.000
    C214    C    0.40972   0.90465   0.97539   1.000
    C215    C    0.90971   0.90465   0.97539   1.000
    C216    C    0.01729   0.86318   0.97084   1.000
    C217    C    0.51728   0.86318   0.97084   1.000
    C218    C    0.41795   0.42681   0.50669   1.000
    C219    C    0.91794   0.42681   0.50668   1.000
    C220    C    0.46493   0.34289   0.53756   1.000
    C221    C    0.96491   0.34288   0.53755   1.000
    C222    C    0.36685   0.29595   0.54591   1.000
    C223    C    0.86684   0.29595   0.54591   1.000
    C224    C    0.46057   0.15459   0.59990   1.000
    C225    C    0.96056   0.15458   0.59990   1.000
    C226    C    0.48097   0.07665   0.54670   1.000
    C227    C    0.98095   0.07664   0.54675   1.000
    C228    C    0.00845   0.97241   0.57751   1.000
    C229    C    0.50844   0.97241   0.57752   1.000
    C230    C    0.47281   0.10339   0.46843   1.000
    C231    C    0.97280   0.10339   0.46843   1.000
    C232    C    0.30338   0.68289   0.56573   1.000
    C233    C    0.80338   0.68289   0.56570   1.000
    C234    C    0.26548   0.68832   0.68308   1.000
    C235    C    0.76547   0.68832   0.68308   1.000
    C236    C    0.25092   0.60146   0.65994   1.000
    C237    C    0.75091   0.60147   0.65994   1.000
    C238    C    0.32029   0.84062   0.61742   1.000
    C239    C    0.82029   0.84062   0.61741   1.000
    C240    C    0.28376   0.92377   0.55700   1.000
    C241    C    0.78376   0.92377   0.55705   1.000
    C242    C    0.21475   0.94979   0.55928   1.000
    C243    C    0.71474   0.94978   0.55928   1.000
    C244    C    0.31871   0.97454   0.49726   1.000
    C245    C    0.81870   0.97454   0.49725   1.000
    C246    C    0.08205   0.57319   0.49332   1.000
    C247    C    0.58204   0.57319   0.49332   1.000
    C248    C    0.03507   0.65711   0.46245   1.000
    C249    C    0.53506   0.65712   0.46245   1.000
    C250    C    0.13314   0.70405   0.45400   1.000
    C251    C    0.63313   0.70405   0.45410   1.000
    C252    C    0.03942   0.84541   0.40010   1.000
    C253    C    0.53941   0.84542   0.40010   1.000
    C254    C    0.01903   0.92335   0.45325   1.000
    C255    C    0.51902   0.92336   0.45325   1.000
    C256    C    0.49155   0.02759   0.42249   1.000
    C257    C    0.99154   0.02759   0.42249   1.000
    C258    C    0.02719   0.89661   0.53157   1.000
    C259    C    0.52718   0.89661   0.53150   1.000
    C260    C    0.19661   0.31711   0.43427   1.000
    C261    C    0.69660   0.31711   0.43428   1.000
    C262    C    0.23452   0.31169   0.31692   1.000
    C263    C    0.73450   0.31168   0.31692   1.000
    C264    C    0.24908   0.39854   0.34006   1.000
    C265    C    0.74906   0.39854   0.34006   1.000
    C266    C    0.17970   0.15938   0.38258   1.000
    C267    C    0.67969   0.15938   0.38259   1.000
    C268    C    0.21623   0.07623   0.44294   1.000
    C269    C    0.71622   0.07623   0.44295   1.000
    C270    C    0.28525   0.05022   0.44072   1.000
    C271    C    0.78524   0.05022   0.44072   1.000
    C272    C    0.18129   0.02546   0.50274   1.000
    C273    C    0.68128   0.02546   0.50275   1.000
    S274    S    0.16543   0.33552   0.64287   1.000
    S275    S    0.66542   0.33552   0.64280   1.000
    S276    S    0.33457   0.66448   0.35712   1.000
    S277    S    0.83456   0.66447   0.35712   1.000
    N278    N    0.99718   0.76601   0.74638   1.000
    N279    N    0.49717   0.76601   0.74639   1.000
    N280    N    0.49237   0.62687   0.69591   1.000
    N281    N    0.99237   0.62686   0.69590   1.000
    N282    N    0.50087   0.13685   0.95545   1.000
    N283    N    0.00000   0.13685   0.95544   1.000
    N284    N    0.03588   0.11176   0.07250   1.000
    N285    N    0.53587   0.11177   0.07250   1.000
    N286    N    0.50282   0.23399   0.25362   1.000
    N287    N    0.00000   0.23399   0.25360   1.000
    N288    N    0.00762   0.37313   0.30409   1.000
    N289    N    0.50761   0.37314   0.30410   1.000
    N290    N    0.99912   0.86315   0.04456   1.000
    N291    N    0.49911   0.86315   0.04456   1.000
    N292    N    0.46411   0.88824   0.92751   1.000
    N293    N    0.96410   0.88824   0.92750   1.000
    N294    N    0.35691   0.39662   0.51215   1.000
    N295    N    0.85690   0.39662   0.51215   1.000
    N296    N    0.43167   0.26056   0.56252   1.000
    N297    N    0.93166   0.26056   0.56252   1.000
    N298    N    0.27480   0.59917   0.58671   1.000
    N299    N    0.77479   0.59917   0.58671   1.000
    N300    N    0.29905   0.73895   0.62289   1.000
    N301    N    0.79905   0.73895   0.62289   1.000
    N302    N    0.14309   0.60338   0.48785   1.000
    N303    N    0.64308   0.60338   0.48786   1.000
    N304    N    0.06833   0.73944   0.43748   1.000
    N305    N    0.56832   0.73944   0.43740   1.000
    N306    N    0.22519   0.40084   0.41300   1.000
    N307    N    0.72518   0.40083   0.41330   1.000
    N308    N    0.20095   0.26105   0.37710   1.000
    N309    N    0.70093   0.26105   0.37711   1.000
    O310    O    0.22771   0.35159   0.59980   1.000
    O311    O    0.72770   0.35159   0.59985   1.000
    O312    O    0.14701   0.40588   0.69830   1.000
    O313    O    0.64701   0.40588   0.69835   1.000
    O314    O    0.11145   0.33366   0.59240   1.000
    O315    O    0.61143   0.33367   0.59248   1.000
    O316    O    0.37936   0.05312   0.75629   1.000
    O317    O    0.87934   0.05312   0.75629   1.000
    O318    O    0.34688   0.89787   0.79040   1.000
    O319    O    0.84686   0.89787   0.79040   1.000
    O320    O    0.10518   0.89050   0.81547   1.000
    O321    O    0.60517   0.89050   0.81547   1.000
    O322    O    0.03391   0.02998   0.75620   1.000
    O323    O    0.53390   0.02998   0.75622   1.000
    O324    O    0.27228   0.64840   0.40015   1.000
    O325    O    0.77227   0.64840   0.40015   1.000
    O326    O    0.35298   0.59414   0.30163   1.000
    O327    O    0.85297   0.59412   0.30164   1.000
    O328    O    0.38855   0.66632   0.40753   1.000
    O329    O    0.88854   0.66632   0.40750   1.000
    O330    O    0.12064   0.94686   0.24371   1.000
    O331    O    0.62063   0.94687   0.24371   1.000
    O332    O    0.15311   0.10212   0.20960   1.000
    O333    O    0.65310   0.10211   0.20960   1.000
    O334    O    0.39481   0.10952   0.18453   1.000
    O335    O    0.89480   0.10951   0.18453   1.000
    O336    O    0.46608   0.97004   0.24379   1.000
    O337    O    0.96607   0.97003   0.24370   1.000
loop_
    _geom_bond_atom_site_label_1
    _geom_bond_atom_site_label_2
    _geom_bond_distance
    _geom_bond_site_symmetry_2
    _ccdc_geom_bond_type
    C170   H36       1.08391      .   S
    C170   N284      1.38547      .   S
    C170   C168      1.37201  1_554   S
    C171   H37       1.08391      .   S
    C171   N285      1.38536      .   S
    C171   C169      1.37201  1_554   S
    C173   H39       1.08493      .   S
    C173   N284      1.33535  1_655   S
    C173   N283      1.35469  1_654   S
    C172   H38       1.08485      .   S
    C172   N285      1.33491      .   S
    C172   N282      1.35855  1_554   S
    N291   C212      1.38716      .   S
    N291   C211      1.46262      .   S
    N291   C217      1.35855  1_554   S
    N290   C213      1.38758      .   S
    N290   C210      1.46262  1_655   S
    N290   C216      1.35855  1_654   S
    C212   H68       1.08309      .   S
    C212   C214      1.37201  1_554   S
    C213   H69       1.08309      .   S
    C213   C215      1.37200  1_554   S
    N285   Cd3       2.27818      .   S
    N284   Cd2       2.27871      .   S
    H66    C210      1.09836      .   S
    H67    C211      1.09836      .   S
    H59    C202      1.08997  1_655   S
    H58    C203      1.08913      .   S
    C211   H65       1.09760      .   S
    C211   C205      1.51318      .   S
    C210   H64       1.09747      .   S
    C210   C204      1.51319      .   S
    C203   C205      1.39564      .   S
    C203   C200      1.39710      .   S
    C202   C204      1.39548      .   S
    C202   C201      1.39679  1_455   S
    C204   C206      1.40319      .   S
    C205   C207      1.40332      .   S
    O335   C187      1.25841      .   S
    O334   C186      1.25841      .   S
    H56    C200      1.08904      .   S
    H57    C201      1.08901      .   S
    H43    C183      1.08851      .   S
    H42    C182      1.08852      .   S
    Cd3    O333      2.53407      .   S
    Cd3    O331      2.37268  1_545   S
    Cd3    O336      2.27833  1_545   S
    Cd3    N286      2.26063      .   S
    Cd2    O332      2.53403      .   S
    Cd2    O337      2.27826  1_445   S
    Cd2    O330      2.37256  1_545   S
    Cd2    N287      2.26617      .   S
    C201   C198      1.39556  1_655   S
    C200   C199      1.39530      .   S
    O333   C181      1.27259      .   S
    O332   C180      1.27276      .   S
    C187   O337      1.29350  1_545   S
    C187   C185      1.50881  1_545   S
    C186   O336      1.29393  1_545   S
    C186   C184      1.50881  1_545   S
    C206   H60       1.09133      .   S
    C206   C208      1.39158      .   S
    C207   H61       1.09135      .   S
    C207   C209      1.39148      .   S
    C183   C185      1.40031  1_545   S
    C183   C179      1.39963  1_545   S
    C182   C184      1.40030  1_545   S
    C182   C178      1.39964  1_545   S
    C181   O331      1.28314  1_545   S
    C181   C179      1.50382  1_545   S
    C180   O330      1.28315  1_545   S
    C180   C178      1.50364  1_545   S
    C184   C188      1.40218      .   S
    C185   C189      1.40219      .   S
    C178   C176      1.40457      .   S
    C179   C177      1.40457      .   S
    N287   C194      1.37929      .   S
    N287   C191      1.33805  1_455   S
    N286   C195      1.33508      .   S
    N286   C190      1.38652      .   S
    H50    C194      1.08289      .   S
    H51    C195      1.08289      .   S
    H118   C262      1.08392      .   S
    H119   C263      1.08376      .   S
    H47    C191      1.08358      .   S
    H46    C190      1.08322      .   S
    C198   C208      1.40256      .   S
    C198   C196      1.51217      .   S
    C199   C209      1.40250      .   S
    C199   C197      1.51208      .   S
    C194   N288      1.35899      .   S
    C195   N289      1.35899      .   S
    C190   C192      1.37287      .   S
    C191   C193      1.37226      .   S
    C208   H62       1.09119      .   S
    C209   H63       1.09133      .   S
    C189   H45       1.08773      .   S
    C189   C175      1.39801      .   S
    C188   H44       1.08767      .   S
    C188   C174      1.39802      .   S
    C177   C175      1.39572      .   S
    C177   H41       1.08751      .   S
    C176   C174      1.39570      .   S
    C176   H40       1.08752      .   S
    O326   S276      1.46982      .   S
    O327   S277      1.46978      .   S
    N288   C193      1.38656  1_455   S
    N288   C196      1.46491      .   S
    N289   C192      1.38616      .   S
    N289   C197      1.46482      .   S
    C174   S276      1.79948      .   S
    C175   S277      1.79950      .   S
    C192   H48       1.08456      .   S
    C193   H49       1.08449      .   S
    H120   C264      1.08602      .   S
    H121   C265      1.08603      .   S
    C263   C265      1.37516      .   S
    C263   N309      1.38850      .   S
    C262   C264      1.37517      .   S
    C262   N308      1.38839      .   S
    H125   C267      1.09885      .   S
    H124   C266      1.09868      .   S
    C197   H53       1.09825      .   S
    C197   H55       1.09881      .   S
    C196   H52       1.09825      .   S
    C196   H54       1.09867      .   S
    C265   N307      1.38512      .   S
    C264   N306      1.38007      .   S
    S276   O324      1.49475      .   S
    S276   O328      1.48188      .   S
    S277   O325      1.49473      .   S
    S277   O329      1.48152      .   S
    H110   C252      1.10027      .   S
    H111   C253      1.10016      .   S
    H112   C256      1.08959      .   S
    H113   C257      1.08959      .   S
    H108   C253      1.09794      .   S
    H109   C252      1.09776  1_655   S
    N308   C266      1.47134      .   S
    N308   C260      1.36152      .   S
    N309   C267      1.47134      .   S
    N309   C261      1.36153      .   S
    C266   H122      1.09913      .   S
    C266   C268      1.50997      .   S
    C267   H123      1.09911      .   S
    C267   C269      1.51001      .   S
    H126   C270      1.09103      .   S
    H127   C271      1.09102      .   S
    C252   N304      1.45976      .   S
    C252   C254      1.51442      .   S
    C253   N305      1.45932      .   S
    C253   C255      1.51442      .   S
    O324   Cd4       2.49355      .   S
    O325   Cd5       2.49357      .   S
    N306   C260      1.33392      .   S
    N306   Cd4       2.34788      .   S
    N307   C261      1.33334      .   S
    N307   Cd5       2.34369      .   S
    C257   C254      1.40153  1_645   S
    C257   C231      1.39535      .   S
    C256   C255      1.40143  1_545   S
    C256   C230      1.39535      .   S
    C260   H116      1.08637      .   S
    C261   H117      1.08637      .   S
    N305   C251      1.36055      .   S
    N305   C249      1.38621      .   S
    N304   C250      1.35987      .   S
    N304   C248      1.38599      .   S
    H106   C250      1.08313      .   S
    H107   C251      1.08316      .   S
    C271   C269      1.40033      .   S
    C271   C245      1.39384  1_545   S
    C270   C268      1.40033      .   S
    C270   C244      1.39393  1_545   S
    H86    C230      1.09049      .   S
    H87    C231      1.09048      .   S
    C268   C272      1.40046      .   S
    C269   C273      1.40043      .   S
    H104   C249      1.08539      .   S
    H105   C248      1.08571  1_655   S
    C254   C258      1.39968      .   S
    C255   C259      1.39846      .   S
    C250   N302      1.33398      .   S
    C251   N303      1.33352      .   S
    C248   C246      1.37452      .   S
    C249   C247      1.37452      .   S
    C230   C226      1.39881      .   S
    C231   C227      1.39968      .   S
    H75    C219      1.08501      .   S
    H74    C218      1.08501      .   S
    N302   C246      1.38628      .   S
    N302   Cd4       2.35743      .   S
    N303   C247      1.38627      .   S
    N303   Cd5       2.35744      .   S
    C246   H102      1.08497      .   S
    C247   H103      1.08502      .   S
    H101   C245      1.09121      .   S
    H100   C244      1.09121      .   S
    C245   C241      1.40044      .   S
    C244   C240      1.39976      .   S
    Cd5    N295      2.35742      .   S
    Cd5    N299      2.34386      .   S
    Cd5    O311      2.49365      .   S
    Cd4    N294      2.35743      .   S
    Cd4    N298      2.34385      .   S
    Cd4    O310      2.49316      .   S
    C272   H128      1.09121      .   S
    C272   C242      1.39393  1_545   S
    C273   H129      1.09123      .   S
    C273   C243      1.39384  1_545   S
    C219   N295      1.38629      .   S
    C219   C221      1.37453      .   S
    C218   N294      1.38628      .   S
    C218   C220      1.37452      .   S
    H88    C232      1.08652      .   S
    H89    C233      1.08606      .   S
    N294   C222      1.33352      .   S
    N295   C223      1.33352      .   S
    C259   H115      1.09082      .   S
    C259   C229      1.39638      .   S
    C258   H114      1.09049      .   S
    C258   C228      1.39535      .   S
    C221   H76       1.08573  1_655   S
    C221   N297      1.38598      .   S
    C220   H77       1.08526      .   S
    C220   N296      1.38595      .   S
    C223   H79       1.08315      .   S
    C223   N297      1.36023      .   S
    C222   H78       1.08316      .   S
    C222   N296      1.36021      .   S
    C226   C229      1.40167  1_545   S
    C226   C224      1.51508      .   S
    C227   C228      1.40152  1_645   S
    C227   C225      1.51442      .   S
    C240   C242      1.40035      .   S
    C240   C238      1.51064      .   S
    C241   C243      1.40033      .   S
    C241   C239      1.51001      .   S
    C243   H99       1.09102      .   S
    C242   H98       1.09104      .   S
    N296   C224      1.45977      .   S
    N297   C225      1.45976      .   S
    C233   N299      1.33341      .   S
    C233   N301      1.36186      .   S
    C232   N298      1.33334      .   S
    C232   N300      1.36139      .   S
    C228   H84       1.08959      .   S
    C229   H85       1.08942      .   S
    N299   C237      1.38495      .   S
    N298   C236      1.38495      .   S
    O314   S274      1.48259      .   S
    O315   S275      1.48086      .   S
    O310   S274      1.49506      .   S
    O311   S275      1.49409      .   S
    C224   H81       1.09742      .   S
    C224   H82       1.10027      .   S
    C225   H80       1.09776  1_655   S
    C225   H83       1.10029      .   S
    H95    C239      1.09913      .   S
    H94    C238      1.09915      .   S
    C239   N301      1.47134      .   S
    C239   H97       1.09885      .   S
    C238   N300      1.47135      .   S
    C238   H96       1.09868      .   S
    N301   C235      1.38849      .   S
    N300   C234      1.38850      .   S
    H20    C152      1.09840      .   S
    H21    C153      1.09869      .   S
    S275   C131      1.80000      .   S
    S275   O313      1.47085      .   S
    S274   C130      1.79949      .   S
    S274   O312      1.46921      .   S
    H19    C153      1.09823      .   S
    H18    C152      1.09805      .   S
    C236   C234      1.37517      .   S
    C236   H92       1.08602      .   S
    C237   C235      1.37518      .   S
    C237   H93       1.08602      .   S
    C152   N280      1.46508      .   S
    C152   C154      1.51239      .   S
    C153   N281      1.46481      .   S
    C153   C155      1.51186      .   S
    H14    C148      1.08456      .   S
    H15    C149      1.08450      .   S
    H29    C165      1.09203      .   S
    H28    C164      1.09033      .   S
    C235   H91       1.07727      .   S
    C234   H90       1.08392      .   S
    C149   N280      1.38615      .   S
    C149   C147      1.37226      .   S
    C148   N281      1.38658  1_455   S
    C148   C146      1.37225      .   S
    H6     C132      1.08752      .   S
    H7     C133      1.08752      .   S
    C130   C132      1.39574      .   S
    C130   C144      1.39802      .   S
    C131   C133      1.39572      .   S
    C131   C145      1.39801      .   S
    N281   C151      1.35899      .   S
    N280   C150      1.35898      .   S
    H10    C144      1.08774      .   S
    H11    C145      1.08772      .   S
    C133   C135      1.40455      .   S
    C132   C134      1.40455      .   S
    C144   C140      1.40216      .   S
    C145   C141      1.40221      .   S
    C164   C154      1.40283      .   S
    C164   C162      1.39212      .   S
    C165   C155      1.40241      .   S
    C165   C163      1.39148      .   S
    C146   H12       1.08360      .   S
    C146   N278      1.38684  1_455   S
    C147   H13       1.08358      .   S
    C147   N279      1.38691      .   S
    C151   H17       1.08290      .   S
    C151   N278      1.33542      .   S
    C150   H16       1.08289      .   S
    C150   N279      1.33509      .   S
    C155   C156      1.39598  1_655   S
    C154   C157      1.39529      .   S
    N278   Cd1       2.26037      .   S
    N279   Cd0       2.26024      .   S
    C135   C137      1.50365  1_545   S
    C135   C139      1.39963  1_545   S
    C134   C136      1.50363  1_545   S
    C134   C138      1.39957  1_545   S
    C140   C138      1.40023  1_545   S
    C140   C142      1.50880  1_545   S
    C141   C139      1.40027  1_545   S
    C141   C143      1.50880  1_545   S
    O322   C142      1.29400  1_545   S
    O322   Cd1       2.27861  1_445   S
    O323   C143      1.29392  1_545   S
    O323   Cd0       2.27824  1_545   S
    O316   C136      1.28316  1_545   S
    O316   Cd0       2.37247  1_545   S
    O317   C137      1.28313  1_545   S
    O317   Cd1       2.37248  1_545   S
    C136   O318      1.27279      .   S
    C137   O319      1.27279      .   S
    H27    C163      1.09138      .   S
    H26    C162      1.09133      .   S
    C138   H8        1.08868      .   S
    C139   H9        1.08855      .   S
    C163   C161      1.40330      .   S
    C162   C160      1.40331      .   S
    C142   O320      1.25840      .   S
    C143   O321      1.25837      .   S
    O319   Cd1       2.53416      .   S
    O318   Cd0       2.53416      .   S
    C156   H22       1.08899      .   S
    C156   C159      1.39679  1_455   S
    C157   H23       1.08904      .   S
    C157   C158      1.39673      .   S
    Cd1    N293      2.27871      .   S
    Cd0    N292      2.27889      .   S
    C161   C159      1.39548      .   S
    C161   C167      1.51317      .   S
    C160   C158      1.39541      .   S
    C160   C166      1.51317      .   S
    C159   H24       1.08995  1_655   S
    C158   H25       1.08969      .   S
    H31    C167      1.09749      .   S
    H30    C166      1.09761      .   S
    C167   H33       1.09835      .   S
    C167   N283      1.45147  1_655   S
    C166   H32       1.09836      .   S
    C166   N282      1.46264      .   S
    H34    C168      1.08309      .   S
    H35    C169      1.08308      .   S
    N293   C216      1.33535  1_655   S
    N293   C215      1.38546      .   S
    N292   C217      1.33489      .   S
    N292   C214      1.38537      .   S
    H72    C216      1.08493      .   S
    H73    C217      1.08487      .   S
    C168   N283      1.40478      .   S
    C169   N282      1.38716      .   S
    H70    C214      1.08391      .   S
    H71    C215      1.08392      .   S
