# CIF file generated by openbabel 2.4.90, see http://openbabel.sf.net
data_I
_chemical_name_common ''
_cell_length_a 14.131
_cell_length_b 14.13
_cell_length_c 14.133
_cell_angle_alpha 104.811
_cell_angle_beta 104.76
_cell_angle_gamma 104.833
_space_group_name_H-M_alt 'P 1'
_space_group_name_Hall 'P 1'
loop_
    _symmetry_equiv_pos_as_xyz
    x,y,z
loop_
    _atom_site_label
    _atom_site_type_symbol
    _atom_site_fract_x
    _atom_site_fract_y
    _atom_site_fract_z
    _atom_site_occupancy
    H0      H    0.53066   0.63787   0.29260   1.000
    H1      H    0.29271   0.53096   0.63802   1.000
    H2      H    0.36210   0.46913   0.70736   1.000
    H3      H    0.46889   0.70744   0.36100   1.000
    C4      C    0.59137   0.80198   0.32578   1.000
    C5      C    0.32592   0.59134   0.80200   1.000
    C6      C    0.19796   0.40867   0.67416   1.000
    C7      C    0.40859   0.67405   0.19780   1.000
    C8      C    0.49987   0.70238   0.29749   1.000
    C9      C    0.29767   0.50002   0.70242   1.000
    O10     O    0.64314   0.85147   0.42227   1.000
    O11     O    0.61356   0.82630   0.25138   1.000
    O12     O    0.42242   0.64305   0.85171   1.000
    O13     O    0.25150   0.61352   0.82639   1.000
    O14     O    0.14838   0.35692   0.57768   1.000
    O15     O    0.17367   0.38646   0.74857   1.000
    O16     O    0.35690   0.57750   0.14825   1.000
    O17     O    0.38649   0.74848   0.17355   1.000
loop_
    _geom_bond_atom_site_label_1
    _geom_bond_atom_site_label_2
    _geom_bond_distance
    _geom_bond_site_symmetry_2
    _ccdc_geom_bond_type
    O16    C7        1.27503      .   S
    O17    C7        1.27248      .   S
    C7     C8        1.52652      .   S
    O11    C4        1.27265      .   S
    H0     C8        1.10046      .   S
    C8     C4        1.52628      .   S
    C8     H3        1.08893      .   S
    C4     O10       1.27517      .   S
    O14    C6        1.27513      .   S
    H1     C9        1.10047      .   S
    C6     C9        1.52618      .   S
    C6     O15       1.27273      .   S
    C9     H2        1.10042      .   S
    C9     C5        1.52530      .   S
    C5     O13       1.27324      .   S
    C5     O12       1.27528      .   S
