# CIF file generated by openbabel 2.4.90, see http://openbabel.sf.net
data_I
_chemical_name_common ''
_cell_length_a 14.131
_cell_length_b 14.13
_cell_length_c 14.133
_cell_angle_alpha 104.811
_cell_angle_beta 104.76
_cell_angle_gamma 104.833
_space_group_name_H-M_alt 'P 1'
_space_group_name_Hall 'P 1'
loop_
    _symmetry_equiv_pos_as_xyz
    x,y,z
loop_
    _atom_site_label
    _atom_site_type_symbol
    _atom_site_fract_x
    _atom_site_fract_y
    _atom_site_fract_z
    _atom_site_occupancy
    N0      N    0.01415   0.01411   0.61711   1.000
    N1      N    0.61710   0.01409   0.01412   1.000
    N2      N    0.01410   0.61705   0.01410   1.000
    N3      N    0.98586   0.98586   0.38291   1.000
    N4      N    0.98592   0.38293   0.98570   1.000
    N5      N    0.38291   0.98589   0.98585   1.000
    N6      N    0.49994   0.72528   0.27446   1.000
    N7      N    0.27470   0.50001   0.72537   1.000
    N8      N    0.72543   0.27467   0.50004   1.000
    N9      N    0.50007   0.27470   0.72545   1.000
    N10     N    0.72531   0.49997   0.27464   1.000
    N11     N    0.27459   0.72531   0.49996   1.000
    N12     N    0.64559   0.64554   0.64555   1.000
    N13     N    0.35442   0.35444   0.35442   1.000
    Zr14    Zr   0.72477   0.00001   0.27521   1.000
    O15     O    0.81064   0.99605   0.31120   1.000
    O16     O    0.68878   0.00395   0.18929   1.000
    O17     O    0.65466   0.90962   0.27204   1.000
    O18     O    0.72792   0.09039   0.34532   1.000
    Zr19    Zr   0.78704   0.78700   0.52107   1.000
    O20     O    0.73861   0.73856   0.55897   1.000
    O21     O    0.86117   0.86112   0.55078   1.000
    Zr22    Zr   0.00002   0.72459   0.27536   1.000
    O23     O    0.99605   0.81053   0.31130   1.000
    O24     O    0.00395   0.68864   0.18943   1.000
    O25     O    0.90963   0.65455   0.27219   1.000
    O26     O    0.09036   0.72776   0.34540   1.000
    Zr27    Zr   0.27544   0.72453   0.40000   1.000
    O28     O    0.26250   0.72772   0.42330   1.000
    O29     O    0.25934   0.70635   0.41960   1.000
    O30     O    0.26553   0.71842   0.42607   1.000
    Zr31    Zr   0.52125   0.78706   0.78711   1.000
    O32     O    0.55910   0.73860   0.73858   1.000
    O33     O    0.55090   0.86115   0.86120   1.000
    Zr34    Zr   0.27523   0.99999   0.72481   1.000
    O35     O    0.27209   0.90961   0.65469   1.000
    O36     O    0.31123   0.99605   0.81067   1.000
    O37     O    0.34535   0.09038   0.72795   1.000
    O38     O    0.18936   0.00394   0.68882   1.000
    Zr39    Zr   0.78721   0.52154   0.78723   1.000
    O40     O    0.86125   0.55108   0.86127   1.000
    O41     O    0.73873   0.55927   0.73873   1.000
    Zr42    Zr   0.21280   0.47843   0.21279   1.000
    O43     O    0.13876   0.44889   0.13869   1.000
    O44     O    0.26128   0.44070   0.26128   1.000
    Zr45    Zr   0.47876   0.21291   0.21291   1.000
    O46     O    0.44911   0.13883   0.13880   1.000
    O47     O    0.44091   0.26138   0.26136   1.000
    Zr48    Zr   0.99999   0.27538   0.72466   1.000
    O49     O    0.99606   0.31133   0.81054   1.000
    O50     O    0.09038   0.34542   0.72783   1.000
    O51     O    0.00396   0.18945   0.68872   1.000
    O52     O    0.90966   0.27221   0.65462   1.000
    Zr53    Zr   0.21297   0.21297   0.47895   1.000
    O54     O    0.13884   0.13885   0.44924   1.000
    O55     O    0.26140   0.26142   0.44104   1.000
    Zr56    Zr   0.72456   0.27544   0.99998   1.000
    O57     O    0.68865   0.18948   0.00394   1.000
    O58     O    0.81053   0.31137   0.99600   1.000
    O59     O    0.65456   0.27226   0.90966   1.000
    O60     O    0.72774   0.34545   0.09035   1.000
loop_
    _geom_bond_atom_site_label_1
    _geom_bond_atom_site_label_2
    _geom_bond_distance
    _geom_bond_site_symmetry_2
    _ccdc_geom_bond_type
    Zr14   O15       1.21214  1_545   S
    N3     O15       2.48123      .   S
    Zr14   O16       1.21274      .   S
    N1     O16       2.48060      .   S
    Zr14   O17       1.38395  1_545   S
    N6     O17       2.95524      .   S
    Zr14   O18       1.38417      .   S
    N8     O18       2.95606      .   S
    Zr19   O20       1.16544      .   S
    N12    O20       2.38957      .   S
    Zr19   O21       1.16607      .   S
    N0     O21       2.40083  1_445   S
    Zr22   O23       1.21230  1_455   S
    N3     O23       2.48158      .   S
    Zr22   O24       1.21226      .   S
    N2     O24       2.48143      .   S
    Zr22   O25       1.38342  1_455   S
    N10    O25       2.95434      .   S
    Zr22   O26       1.38404      .   S
    N11    O26       2.95592      .   S
    Zr27   O28       0.41386      .   S
    N11    O28       1.06385      .   S
    Zr27   O29       0.48270      .   S
    N11    O29       1.04806      .   S
    Zr27   O30       0.44628      .   S
    N11    O30       0.99501      .   S
    Zr31   O32       1.16600      .   S
    N12    O32       2.38946      .   S
    Zr31   O33       1.16595      .   S
    N1     O33       2.40054  1_544   S
    Zr34   O35       1.38436      .   S
    N11    O35       2.95630      .   S
    Zr34   O36       1.21197      .   S
    N5     O36       2.48088      .   S
    Zr34   O37       1.38400  1_565   S
    N9     O37       2.95561      .   S
    Zr34   O38       1.21205  1_565   S
    N0     O38       2.48107      .   S
    Zr39   O40       1.16583      .   S
    N2     O40       2.40035  1_454   S
    Zr39   O41       1.16538      .   S
    N12    O41       2.38972      .   S
    Zr42   O43       1.16628      .   S
    N4     O43       2.40168  1_656   S
    Zr42   O44       1.16529      .   S
    N13    O44       2.38947      .   S
    Zr45   O46       1.16606      .   S
    N5     O46       2.40085  1_566   S
    Zr45   O47       1.16542      .   S
    N13    O47       2.38969      .   S
    Zr48   O49       1.21156      .   S
    N4     O49       2.47932      .   S
    Zr48   O50       1.38344  1_655   S
    N7     O50       2.95441      .   S
    Zr48   O51       1.21230  1_655   S
    N0     O51       2.48157      .   S
    Zr48   O52       1.38407      .   S
    N8     O52       2.95600      .   S
    Zr53   O54       1.16608      .   S
    N3     O54       2.40084  1_665   S
    Zr53   O55       1.16556      .   S
    N13    O55       2.38994      .   S
    Zr56   O57       1.21234  1_556   S
    N1     O57       2.48157      .   S
    Zr56   O58       1.21258      .   S
    N4     O58       2.48234      .   S
    Zr56   O59       1.38367      .   S
    N9     O59       2.95521      .   S
    Zr56   O60       1.38339  1_556   S
    N10    O60       2.95442      .   S
