# CIF file generated by openbabel 2.4.90, see http://openbabel.sf.net
data_I
_chemical_name_common ''
_cell_length_a 14.124
_cell_length_b 14.14
_cell_length_c 14.122
_cell_angle_alpha 104.886
_cell_angle_beta 104.722
_cell_angle_gamma 104.841
_space_group_name_H-M_alt 'P 1'
_space_group_name_Hall 'P 1'
loop_
    _symmetry_equiv_pos_as_xyz
    x,y,z
loop_
    _atom_site_label
    _atom_site_type_symbol
    _atom_site_fract_x
    _atom_site_fract_y
    _atom_site_fract_z
    _atom_site_occupancy
    Ag0     Ag   0.47852   0.21289   0.21275   1.000
    Ag1     Ag   0.21271   0.47822   0.21272   1.000
    Ag2     Ag   0.78734   0.78721   0.52170   1.000
    Ag3     Ag   0.78728   0.52179   0.78724   1.000
    Ag4     Ag   0.52147   0.78713   0.78720   1.000
    Ag5     Ag   0.72444   0.99997   0.27553   1.000
    Ag6     Ag   0.27584   0.72440   0.00000   1.000
    Ag7     Ag   0.00002   0.27575   0.72399   1.000
    Ag8     Ag   0.27555   0.00003   0.72442   1.000
    Ag9     Ag   0.72415   0.27562   0.99999   1.000
    Ag10    Ag   0.99999   0.72427   0.27596   1.000
    H11     H    0.46906   0.36216   0.70725   1.000
    H12     H    0.89326   0.17830   0.42548   1.000
    H13     H    0.02873   0.23631   0.49228   1.000
    H14     H    0.74562   0.82442   0.25432   1.000
    H15     H    0.39788   0.19092   0.47807   1.000
    H16     H    0.70702   0.46937   0.36253   1.000
    H17     H    0.42555   0.89349   0.17846   1.000
    H18     H    0.49236   0.02891   0.23643   1.000
    H19     H    0.25425   0.74561   0.82420   1.000
    H20     H    0.47823   0.39808   0.19037   1.000
    H21     H    0.36227   0.70706   0.46891   1.000
    H22     H    0.17864   0.42550   0.89320   1.000
    H23     H    0.23649   0.49230   0.02878   1.000
    H24     H    0.82446   0.25451   0.74550   1.000
    H25     H    0.19033   0.47809   0.39804   1.000
    H26     H    0.63756   0.53089   0.29296   1.000
    H27     H    0.82155   0.10655   0.57443   1.000
    H28     H    0.76360   0.97110   0.50768   1.000
    H29     H    0.17568   0.25439   0.74562   1.000
    H30     H    0.80976   0.60199   0.52181   1.000
    H31     H    0.53089   0.29284   0.63765   1.000
    Ag32    Ag   0.21265   0.21280   0.47826   1.000
    H33     H    0.10676   0.57450   0.82122   1.000
    H34     H    0.97125   0.50771   0.76334   1.000
    H35     H    0.25435   0.74551   0.17555   1.000
    H36     H    0.60193   0.52190   0.80951   1.000
    H37     H    0.29283   0.63782   0.53085   1.000
    H38     H    0.57449   0.82180   0.10670   1.000
    H39     H    0.50762   0.76380   0.97118   1.000
    H40     H    0.74575   0.17565   0.25445   1.000
    H41     H    0.52186   0.80907   0.60204   1.000
    H42     H    0.53093   0.63786   0.29271   1.000
    H43     H    0.10674   0.82171   0.57448   1.000
    H44     H    0.97126   0.76371   0.50768   1.000
    H45     H    0.25438   0.17560   0.74564   1.000
    H46     H    0.60211   0.80909   0.52188   1.000
    H47     H    0.29297   0.53064   0.63743   1.000
    H48     H    0.57444   0.10653   0.82150   1.000
    H49     H    0.50763   0.97110   0.76353   1.000
    H50     H    0.74574   0.25440   0.17576   1.000
    H51     H    0.52176   0.60193   0.80959   1.000
    H52     H    0.63773   0.29296   0.53100   1.000
    H53     H    0.82136   0.57451   0.10676   1.000
    H54     H    0.76350   0.50772   0.97118   1.000
    H55     H    0.17553   0.74550   0.25441   1.000
    H56     H    0.80966   0.52192   0.60192   1.000
    H57     H    0.36243   0.46913   0.70700   1.000
    H58     H    0.17844   0.89347   0.42553   1.000
    H59     H    0.23639   0.02892   0.49228   1.000
    H60     H    0.82431   0.74563   0.25434   1.000
    H61     H    0.19023   0.39803   0.47814   1.000
    H62     H    0.46910   0.70717   0.36231   1.000
    H63     H    0.89323   0.42552   0.17874   1.000
    H64     H    0.02875   0.49231   0.23662   1.000
    H65     H    0.74564   0.25450   0.82440   1.000
    H66     H    0.39807   0.47812   0.19045   1.000
    H67     H    0.70716   0.36219   0.46910   1.000
    H68     H    0.42550   0.17822   0.89325   1.000
    H69     H    0.49237   0.23621   0.02877   1.000
    H70     H    0.25424   0.82437   0.74551   1.000
    H71     H    0.47813   0.19094   0.39791   1.000
    C72     C    0.40856   0.19805   0.67381   1.000
    C73     C    0.97648   0.08033   0.40517   1.000
    C74     C    0.67396   0.40864   0.19827   1.000
    C75     C    0.40526   0.97654   0.08041   1.000
    C76     C    0.19803   0.67387   0.40869   1.000
    C77     C    0.08046   0.40528   0.97644   1.000
    C78     C    0.80178   0.59139   0.32600   1.000
    C79     C    0.91959   0.02348   0.59474   1.000
    C80     C    0.59132   0.32609   0.80189   1.000
    C81     C    0.02354   0.59474   0.91945   1.000
    C82     C    0.32617   0.80195   0.59130   1.000
    C83     C    0.59477   0.91972   0.02348   1.000
    C84     C    0.59143   0.80196   0.32615   1.000
    C85     C    0.02351   0.91968   0.59479   1.000
    C86     C    0.32603   0.59137   0.80168   1.000
    C87     C    0.59473   0.02348   0.91955   1.000
    C88     C    0.80196   0.32615   0.59127   1.000
    C89     C    0.91953   0.59474   0.02350   1.000
    C90     C    0.19821   0.40863   0.67387   1.000
    C91     C    0.08040   0.97654   0.40522   1.000
    C92     C    0.40867   0.67393   0.19807   1.000
    C93     C    0.97645   0.40527   0.08051   1.000
    C94     C    0.67382   0.19807   0.40859   1.000
    C95     C    0.40522   0.08029   0.97640   1.000
    C96     C    0.90272   0.90270   0.32029   1.000
    C97     C    0.32025   0.90269   0.90266   1.000
    C98     C    0.90275   0.32043   0.90271   1.000
    C99     C    0.09727   0.09731   0.67966   1.000
    C100    C    0.09724   0.67959   0.09725   1.000
    C101    C    0.67974   0.09733   0.09729   1.000
    C102    C    0.49997   0.29776   0.70217   1.000
    C103    C    0.70206   0.50009   0.29798   1.000
    C104    C    0.29782   0.70219   0.49993   1.000
    C105    C    0.50002   0.70226   0.29779   1.000
    C106    C    0.29793   0.49993   0.70198   1.000
    C107    C    0.70217   0.29783   0.50003   1.000
    C108    C    0.38840   0.28495   0.38840   1.000
    C109    C    0.38844   0.38854   0.28459   1.000
    C110    C    0.28451   0.38851   0.38840   1.000
    C111    C    0.71548   0.61151   0.61156   1.000
    C112    C    0.61155   0.61147   0.71537   1.000
    C113    C    0.61159   0.71506   0.61156   1.000
    N114    N    0.88936   0.99635   0.34746   1.000
    N115    N    0.96658   0.17410   0.43630   1.000
    N116    N    0.34755   0.88938   0.99635   1.000
    N117    N    0.43644   0.96674   0.17423   1.000
    N118    N    0.99646   0.34767   0.88927   1.000
    N119    N    0.17432   0.43640   0.96654   1.000
    N120    N    0.00360   0.11065   0.65236   1.000
    N121    N    0.82578   0.03330   0.56358   1.000
    N122    N    0.11067   0.65237   0.00350   1.000
    N123    N    0.03344   0.56361   0.82555   1.000
    N124    N    0.65254   0.00370   0.11064   1.000
    N125    N    0.56359   0.82598   0.03336   1.000
    N126    N    0.11064   0.00367   0.65250   1.000
    N127    N    0.03342   0.82591   0.56362   1.000
    N128    N    0.65244   0.11064   0.00361   1.000
    N129    N    0.56355   0.03328   0.82573   1.000
    N130    N    0.00353   0.65235   0.11069   1.000
    N131    N    0.82567   0.56362   0.03342   1.000
    N132    N    0.99639   0.88937   0.34759   1.000
    N133    N    0.17421   0.96672   0.43637   1.000
    N134    N    0.88932   0.34764   0.99646   1.000
    N135    N    0.96655   0.43641   0.17441   1.000
    N136    N    0.34745   0.99631   0.88932   1.000
    N137    N    0.43640   0.17404   0.96659   1.000
    N138    N    0.07406   0.07405   0.43306   1.000
    N139    N    0.81803   0.81802   0.26293   1.000
    N140    N    0.31759   0.31793   0.42486   1.000
    N141    N    0.43317   0.07402   0.07409   1.000
    N142    N    0.26285   0.81801   0.81794   1.000
    N143    N    0.42495   0.31800   0.31769   1.000
    N144    N    0.07407   0.43312   0.07412   1.000
    N145    N    0.81808   0.26304   0.81800   1.000
    N146    N    0.31765   0.42492   0.31767   1.000
    N147    N    0.92593   0.92597   0.56690   1.000
    N148    N    0.18197   0.18199   0.73703   1.000
    N149    N    0.68240   0.68209   0.57510   1.000
    N150    N    0.92592   0.56690   0.92584   1.000
    N151    N    0.18192   0.73698   0.18195   1.000
    N152    N    0.68234   0.57510   0.68228   1.000
    N153    N    0.56682   0.92599   0.92587   1.000
    N154    N    0.73714   0.18201   0.18202   1.000
    N155    N    0.57505   0.68202   0.68227   1.000
    N156    N    0.42324   0.21661   0.42323   1.000
    N157    N    0.42331   0.42331   0.21607   1.000
    N158    N    0.21594   0.42326   0.42324   1.000
    N159    N    0.78405   0.57676   0.57670   1.000
    N160    N    0.57668   0.57671   0.78389   1.000
    N161    N    0.57675   0.78341   0.57672   1.000
    O162    O    0.35680   0.14840   0.57720   1.000
    O163    O    0.38643   0.17378   0.74830   1.000
    O164    O    0.57747   0.35700   0.14822   1.000
    O165    O    0.74859   0.38639   0.17400   1.000
    O166    O    0.14814   0.57734   0.35710   1.000
    O167    O    0.17395   0.74830   0.38653   1.000
    O168    O    0.85189   0.64300   0.42262   1.000
    O169    O    0.82565   0.61361   0.25145   1.000
    O170    O    0.64295   0.42262   0.85171   1.000
    O171    O    0.61348   0.25166   0.82598   1.000
    O172    O    0.42271   0.85161   0.64311   1.000
    O173    O    0.25169   0.82622   0.61354   1.000
    O174    O    0.64319   0.85162   0.42273   1.000
    O175    O    0.61357   0.82624   0.25166   1.000
    O176    O    0.42252   0.64301   0.85174   1.000
    O177    O    0.25140   0.61363   0.82556   1.000
    O178    O    0.85185   0.42268   0.64286   1.000
    O179    O    0.82604   0.25171   0.61343   1.000
    O180    O    0.14810   0.35702   0.57734   1.000
    O181    O    0.17434   0.38641   0.74851   1.000
    O182    O    0.35704   0.57740   0.14824   1.000
    O183    O    0.38651   0.74836   0.17397   1.000
    O184    O    0.57728   0.14840   0.35685   1.000
    O185    O    0.74830   0.17379   0.38642   1.000
loop_
    _geom_bond_atom_site_label_1
    _geom_bond_atom_site_label_2
    _geom_bond_distance
    _geom_bond_site_symmetry_2
    _ccdc_geom_bond_type
    N122   C100      1.35651      .   S
    N122   C81       1.35436  1_554   S
    N122   Ag6       2.31283      .   S
    N128   C101      1.35652      .   S
    N128   C87       1.35440  1_554   S
    N128   Ag9       2.31253  1_554   S
    C83    N125      1.34077      .   S
    C83    N124      1.35392  1_565   S
    C83    N153      1.36673  1_554   S
    C89    N131      1.34086      .   S
    C89    N130      1.35439  1_655   S
    C89    N150      1.36664  1_554   S
    H69    N137      1.03124  1_554   S
    H23    N119      1.03130  1_554   S
    N125   H38       1.02711      .   S
    N125   H39       1.03123  1_554   S
    N131   H53       1.02716      .   S
    N131   H54       1.03129  1_554   S
    N141   C75       1.36605  1_545   S
    N141   Ag0       2.20069      .   S
    N141   C95       1.36780  1_554   S
    N144   C93       1.36654  1_455   S
    N144   Ag1       2.20069      .   S
    N144   C77       1.36691  1_554   S
    C75    N117      1.34077      .   S
    C75    N116      1.35440  1_554   S
    C93    N135      1.34078      .   S
    C93    N134      1.35436  1_554   S
    C100   N130      1.35655      .   S
    C100   N151      1.34036      .   S
    C101   N124      1.35654      .   S
    C101   N154      1.34028      .   S
    N124   Ag5       2.31192  1_545   S
    N130   Ag10      2.31303  1_455   S
    O164   C74       1.27501      .   S
    O182   C92       1.27509      .   S
    O183   C92       1.27278      .   S
    O183   Ag6       2.43788      .   S
    O165   C74       1.27499      .   S
    O165   Ag9       2.43420  1_554   S
    N117   H17       1.02703      .   S
    N117   H18       1.03114  1_565   S
    N135   H63       1.02715      .   S
    N135   H64       1.03127  1_655   S
    H35    N151      1.02897      .   S
    H50    N154      1.02892      .   S
    N151   H55       1.02901      .   S
    N154   H40       1.02899      .   S
    H20    N157      1.03879      .   S
    H66    N157      1.03858      .   S
    C92    C105      1.52649      .   S
    C74    C103      1.52637      .   S
    Ag1    N146      2.23412      .   S
    Ag0    N143      2.23424      .   S
    N157   C109      1.33538      .   S
    O169   Ag10      2.43846      .   S
    O169   C78       1.27151      .   S
    O175   Ag5       2.43650      .   S
    O175   C84       1.27272      .   S
    H14    N139      1.02896      .   S
    H60    N139      1.02894      .   S
    N139   C96       1.34024      .   S
    Ag5    N114      2.31194      .   S
    Ag5    O185      2.43653  1_565   S
    Ag10   N132      2.31287      .   S
    Ag10   O167      2.43733  1_655   S
    C109   N146      1.36379      .   S
    C109   N143      1.36381      .   S
    H42    C105      1.10047      .   S
    H26    C103      1.10040      .   S
    C105   C84       1.52625      .   S
    C105   H62       1.10044      .   S
    C103   C78       1.52645      .   S
    C103   H16       1.10046      .   S
    N146   C110      1.36389      .   S
    N143   C108      1.36382      .   S
    C96    N114      1.35653      .   S
    C96    N132      1.35656      .   S
    C78    O168      1.27601      .   S
    C84    O174      1.27511      .   S
    N114   C73       1.35390  1_565   S
    N132   C91       1.35426  1_655   S
    O184   C94       1.27511      .   S
    O166   C76       1.27505      .   S
    O185   C94       1.27267      .   S
    O167   C76       1.27276      .   S
    C110   N158      1.33530      .   S
    C110   N140      1.36383      .   S
    C108   N156      1.33522      .   S
    C108   N140      1.36380      .   S
    H71    N156      1.03871      .   S
    H25    N158      1.03859      .   S
    C73    N138      1.36653  1_655   S
    C73    N115      1.34074      .   S
    C91    N138      1.36610  1_565   S
    C91    N133      1.34081      .   S
    C94    C107      1.52627      .   S
    C76    C104      1.52639      .   S
    N156   H15       1.03875      .   S
    N158   H61       1.03882      .   S
    N140   Ag32      2.23398      .   S
    H12    N115      1.02714      .   S
    H58    N133      1.02701      .   S
    N138   Ag32      2.20061      .   S
    N115   H13       1.03135  1_655   S
    N133   H59       1.03115  1_565   S
    H21    C104      1.10053      .   S
    H67    C107      1.10049      .   S
    C104   H37       1.10042      .   S
    C104   C82       1.52575      .   S
    C107   H52       1.10008      .   S
    C107   C88       1.52640      .   S
    H44    N127      1.03117  1_655   S
    H28    N121      1.03111  1_565   S
    Ag2    N147      2.20061      .   S
    Ag2    N149      2.23399      .   S
    H30    N159      1.03868      .   S
    H46    N161      1.03872      .   S
    N121   H27       1.02700      .   S
    N121   C79       1.34081      .   S
    N127   H43       1.02709      .   S
    N127   C85       1.34080      .   S
    N147   C79       1.36610  1_565   S
    N147   C85       1.36653  1_655   S
    N149   C113      1.36381      .   S
    N149   C111      1.36383      .   S
    N159   H56       1.03873      .   S
    N159   C111      1.33543      .   S
    N161   H41       1.03873      .   S
    N161   C113      1.33530      .   S
    O162   C72       1.27544      .   S
    O180   C90       1.27502      .   S
    C88    O179      1.27275      .   S
    C88    O178      1.27506      .   S
    C82    O173      1.27305      .   S
    C82    O172      1.27527      .   S
    C79    N120      1.35425  1_655   S
    C85    N126      1.35390  1_565   S
    C113   N155      1.36381      .   S
    C111   N152      1.36376      .   S
    O179   Ag7       2.43747  1_655   S
    O173   Ag8       2.43629  1_565   S
    H47    C106      1.10045      .   S
    H31    C102      1.10046      .   S
    N120   C99       1.35655      .   S
    N120   Ag7       2.31279      .   S
    N126   C99       1.35652      .   S
    N126   Ag8       2.31200      .   S
    C72    C102      1.52626      .   S
    C72    O163      1.27273      .   S
    C90    C106      1.52621      .   S
    C90    O181      1.27272      .   S
    C99    N148      1.34026      .   S
    N155   C112      1.36383      .   S
    N155   Ag4       2.23416      .   S
    N152   C112      1.36385      .   S
    N152   Ag3       2.23421      .   S
    C106   H57       1.10041      .   S
    C106   C86       1.52627      .   S
    C102   H11       1.10047      .   S
    C102   C80       1.52652      .   S
    C112   N160      1.33534      .   S
    Ag7    O181      2.43822      .   S
    Ag7    N118      2.31325  1_455   S
    Ag8    O163      2.43663      .   S
    Ag8    N136      2.31195  1_545   S
    N148   H29       1.02894      .   S
    N148   H45       1.02896      .   S
    H24    N145      1.02957      .   S
    H70    N142      1.02899      .   S
    H34    N123      1.03128  1_655   S
    H49    N129      1.03114  1_565   S
    N160   H36       1.03860      .   S
    N160   H51       1.03882      .   S
    Ag4    N153      2.20078      .   S
    Ag3    N150      2.20069      .   S
    C86    O177      1.27272      .   S
    C86    O176      1.27504      .   S
    C80    O171      1.27270      .   S
    C80    O170      1.27507      .   S
    N142   H19       1.02892      .   S
    N142   C97       1.34021      .   S
    N145   H65       1.02897      .   S
    N145   C98       1.34043      .   S
    H33    N123      1.02714      .   S
    H48    N129      1.02703      .   S
    N123   C81       1.34079      .   S
    O177   Ag6       2.43913  1_556   S
    N129   C87       1.34077      .   S
    O171   Ag9       2.43831      .   S
    N118   C98       1.35655      .   S
    N118   C77       1.35424  1_655   S
    N136   C97       1.35647      .   S
    N136   C95       1.35332  1_565   S
    H22    N119      1.02716      .   S
    H68    N137      1.02711      .   S
    C97    N116      1.35665      .   S
    C98    N134      1.35651      .   S
    C81    N150      1.36652  1_455   S
    C87    N153      1.36605  1_545   S
    N119   C77       1.34074      .   S
    N137   C95       1.34034      .   S
    N116   Ag6       2.31271  1_556   S
    N134   Ag9       2.31309      .   S
