# CIF file generated by openbabel 2.4.90, see http://openbabel.sf.net
data_I
_chemical_name_common ''
_cell_length_a 14.124
_cell_length_b 14.14
_cell_length_c 14.122
_cell_angle_alpha 104.886
_cell_angle_beta 104.722
_cell_angle_gamma 104.841
_space_group_name_H-M_alt 'P 1'
_space_group_name_Hall 'P 1'
loop_
    _symmetry_equiv_pos_as_xyz
    x,y,z
loop_
    _atom_site_label
    _atom_site_type_symbol
    _atom_site_fract_x
    _atom_site_fract_y
    _atom_site_fract_z
    _atom_site_occupancy
    Zr0     Zr   0.21265   0.21280   0.47826   1.000
    Zr1     Zr   0.47852   0.21289   0.21275   1.000
    Zr2     Zr   0.21271   0.47822   0.21272   1.000
    Zr3     Zr   0.78734   0.78721   0.52170   1.000
    Zr4     Zr   0.78728   0.52179   0.78724   1.000
    Zr5     Zr   0.52147   0.78713   0.78720   1.000
    Zr6     Zr   0.72444   0.99997   0.27553   1.000
    Zr7     Zr   0.27584   0.72440   0.00000   1.000
    Zr8     Zr   0.00002   0.27575   0.72399   1.000
    Zr9     Zr   0.27555   0.00003   0.72442   1.000
    Zr10    Zr   0.72415   0.27562   0.99999   1.000
    Zr11    Zr   0.99999   0.72427   0.27596   1.000
    N12     N    0.61740   0.01436   0.01431   1.000
    O13     O    0.65295   0.00810   0.10370   1.000
    O14     O    0.65285   0.10375   0.00806   1.000
    O15     O    0.58077   0.93546   0.93542   1.000
    N16     N    0.49994   0.27482   0.72511   1.000
    O17     O    0.41546   0.18086   0.73073   1.000
    O18     O    0.58438   0.26923   0.81905   1.000
    N19     N    0.72511   0.50004   0.27489   1.000
    O20     O    0.73074   0.41552   0.18094   1.000
    O21     O    0.81896   0.58449   0.26930   1.000
    N22     N    0.27485   0.72515   0.50000   1.000
    O23     O    0.18091   0.73072   0.41562   1.000
    O24     O    0.26923   0.81914   0.58449   1.000
    N25     N    0.50005   0.72520   0.27485   1.000
    O26     O    0.58453   0.81915   0.26922   1.000
    O27     O    0.41561   0.73079   0.18092   1.000
    N28     N    0.27488   0.49997   0.72501   1.000
    O29     O    0.26925   0.58449   0.81890   1.000
    O30     O    0.18103   0.41553   0.73063   1.000
    N31     N    0.72515   0.27487   0.49995   1.000
    O32     O    0.81909   0.26930   0.58433   1.000
    O33     O    0.73076   0.18087   0.41546   1.000
    N34     N    0.35446   0.35468   0.35448   1.000
    O35     O    0.30979   0.31002   0.40302   1.000
    O36     O    0.40310   0.31006   0.30985   1.000
    O37     O    0.30982   0.40313   0.30984   1.000
    N38     N    0.64553   0.64534   0.64548   1.000
    O39     O    0.69020   0.68999   0.59694   1.000
    O40     O    0.69017   0.59689   0.69012   1.000
    O41     O    0.59690   0.68996   0.69011   1.000
    N42     N    0.98566   0.98568   0.38257   1.000
    O43     O    0.89628   0.99192   0.34703   1.000
    O44     O    0.99193   0.89625   0.34717   1.000
    O45     O    0.06451   0.06455   0.41912   1.000
    N46     N    0.38259   0.98566   0.98564   1.000
    O47     O    0.34714   0.89627   0.99191   1.000
    O48     O    0.34704   0.99191   0.89626   1.000
    O49     O    0.41922   0.06456   0.06453   1.000
    N50     N    0.01428   0.61736   0.01424   1.000
    O51     O    0.10377   0.65287   0.00800   1.000
    O52     O    0.00802   0.65283   0.10378   1.000
    O53     O    0.93544   0.58085   0.93539   1.000
    N54     N    0.01433   0.01434   0.61738   1.000
    O55     O    0.00807   0.10377   0.65278   1.000
    O56     O    0.10371   0.00809   0.65292   1.000
    O57     O    0.93548   0.93546   0.58084   1.000
    N58     N    0.98571   0.38266   0.98571   1.000
    O59     O    0.99198   0.34719   0.89617   1.000
    O60     O    0.89622   0.34715   0.99197   1.000
    O61     O    0.06455   0.41917   0.06457   1.000
loop_
    _geom_bond_atom_site_label_1
    _geom_bond_atom_site_label_2
    _geom_bond_distance
    _geom_bond_site_symmetry_2
    _ccdc_geom_bond_type
    N12    O13       1.26942      .   S
    Zr6    O13       2.42458  1_565   S
    N12    O14       1.26947      .   S
    Zr10   O14       2.42493  1_556   S
    N12    O15       1.23542  1_544   S
    Zr5    O15       2.33143      .   S
    N16    O17       1.57649      .   S
    Zr9    O17       2.76696      .   S
    N16    O18       1.57684      .   S
    Zr10   O18       2.76784      .   S
    N19    O20       1.57558      .   S
    Zr10   O20       2.76399  1_556   S
    N19    O21       1.57485      .   S
    Zr11   O21       2.76512      .   S
    N22    O23       1.57624      .   S
    Zr11   O23       2.76670  1_655   S
    N22    O24       1.57592      .   S
    Zr9    O24       2.76618  1_545   S
    N25    O26       1.57645      .   S
    Zr6    O26       2.76685      .   S
    N25    O27       1.57678      .   S
    Zr7    O27       2.76758      .   S
    N28    O29       1.57499      .   S
    Zr7    O29       2.76558  1_554   S
    N28    O30       1.57497      .   S
    Zr8    O30       2.76509      .   S
    N31    O32       1.57631      .   S
    Zr8    O32       2.76682  1_455   S
    N31    O33       1.57592      .   S
    Zr6    O33       2.76631  1_565   S
    N34    O35       1.22673      .   S
    Zr0    O35       2.32950      .   S
    N34    O36       1.22673      .   S
    Zr1    O36       2.32960      .   S
    N34    O37       1.22691      .   S
    Zr2    O37       2.32981      .   S
    N38    O39       1.22670      .   S
    Zr3    O39       2.32947      .   S
    N38    O40       1.22691      .   S
    Zr4    O40       2.32986      .   S
    N38    O41       1.22673      .   S
    Zr5    O41       2.32956      .   S
    N42    O43       1.26934      .   S
    Zr6    O43       2.42451      .   S
    N42    O44       1.26955      .   S
    Zr11   O44       2.42518      .   S
    N42    O45       1.23539  1_665   S
    Zr0    O45       2.33133      .   S
    N46    O47       1.26954      .   S
    Zr7    O47       2.42509  1_554   S
    N46    O48       1.26938      .   S
    Zr9    O48       2.42456  1_545   S
    N46    O49       1.23543  1_566   S
    Zr1    O49       2.33140      .   S
    N50    O51       1.26953      .   S
    Zr7    O51       2.42511      .   S
    N50    O52       1.26968      .   S
    Zr11   O52       2.42536  1_655   S
    N50    O53       1.23545  1_454   S
    Zr4    O53       2.33141      .   S
    N54    O55       1.26953      .   S
    Zr8    O55       2.42511      .   S
    N54    O56       1.26936      .   S
    Zr9    O56       2.42455      .   S
    N54    O57       1.23540  1_445   S
    Zr3    O57       2.33133      .   S
    N58    O59       1.26970      .   S
    Zr8    O59       2.42549  1_455   S
    N58    O60       1.26961      .   S
    Zr10   O60       2.42532      .   S
    N58    O61       1.23548  1_656   S
    Zr2    O61       2.33144      .   S
