# CIF file generated by openbabel 2.4.90, see http://openbabel.sf.net
data_I
_chemical_name_common ''
_cell_length_a 14.124
_cell_length_b 14.14
_cell_length_c 14.122
_cell_angle_alpha 104.886
_cell_angle_beta 104.722
_cell_angle_gamma 104.841
_space_group_name_H-M_alt 'P 1'
_space_group_name_Hall 'P 1'
loop_
    _symmetry_equiv_pos_as_xyz
    x,y,z
loop_
    _atom_site_label
    _atom_site_type_symbol
    _atom_site_fract_x
    _atom_site_fract_y
    _atom_site_fract_z
    _atom_site_occupancy
    N0      N    0.61740   0.01436   0.01431   1.000
    N1      N    0.49994   0.27482   0.72511   1.000
    N2      N    0.72511   0.50004   0.27489   1.000
    N3      N    0.27485   0.72515   0.50000   1.000
    N4      N    0.50005   0.72520   0.27485   1.000
    N5      N    0.27488   0.49997   0.72501   1.000
    N6      N    0.72515   0.27487   0.49995   1.000
    N7      N    0.35446   0.35468   0.35448   1.000
    N8      N    0.64553   0.64534   0.64548   1.000
    N9      N    0.98566   0.98568   0.38257   1.000
    N10     N    0.38259   0.98566   0.98564   1.000
    N11     N    0.01428   0.61736   0.01424   1.000
    N12     N    0.01433   0.01434   0.61738   1.000
    N13     N    0.98571   0.38266   0.98571   1.000
    Zr14    Zr   0.78728   0.52179   0.78724   1.000
    O15     O    0.86136   0.55132   0.86132   1.000
    O16     O    0.73873   0.55934   0.73868   1.000
    Zr17    Zr   0.21271   0.47822   0.21272   1.000
    O18     O    0.26126   0.44068   0.26128   1.000
    O19     O    0.13863   0.44870   0.13864   1.000
    Zr20    Zr   0.72444   0.99997   0.27553   1.000
    O21     O    0.81036   0.99595   0.31128   1.000
    O22     O    0.65448   0.90956   0.27238   1.000
    O23     O    0.72760   0.09042   0.34550   1.000
    O24     O    0.68869   0.00404   0.18961   1.000
    Zr25    Zr   0.21265   0.21280   0.47826   1.000
    O26     O    0.26122   0.26141   0.44064   1.000
    O27     O    0.13858   0.13868   0.44869   1.000
    Zr28    Zr   0.27584   0.72440   0.00000   1.000
    O29     O    0.34573   0.72759   0.09046   1.000
    O30     O    0.18980   0.68863   0.00400   1.000
    O31     O    0.27254   0.65445   0.90945   1.000
    O32     O    0.31149   0.81034   0.99595   1.000
    Zr33    Zr   0.52147   0.78713   0.78720   1.000
    O34     O    0.55919   0.73854   0.73865   1.000
    O35     O    0.55112   0.86129   0.86131   1.000
    Zr36    Zr   0.27555   0.00003   0.72442   1.000
    O37     O    0.18963   0.00406   0.68867   1.000
    O38     O    0.27239   0.90958   0.65445   1.000
    O39     O    0.31130   0.99597   0.81034   1.000
    O40     O    0.34551   0.09044   0.72758   1.000
    Zr41    Zr   0.00002   0.27575   0.72399   1.000
    O42     O    0.00405   0.18976   0.68838   1.000
    O43     O    0.09053   0.34564   0.72731   1.000
    O44     O    0.90956   0.27252   0.65416   1.000
    O45     O    0.99600   0.31147   0.81008   1.000
    Zr46    Zr   0.72415   0.27562   0.99999   1.000
    O47     O    0.81018   0.31138   0.99598   1.000
    O48     O    0.72744   0.34557   0.09047   1.000
    O49     O    0.68850   0.18968   0.00402   1.000
    O50     O    0.65426   0.27242   0.90952   1.000
    Zr51    Zr   0.99999   0.72427   0.27596   1.000
    O52     O    0.09045   0.72750   0.34579   1.000
    O53     O    0.00400   0.68855   0.18987   1.000
    O54     O    0.90948   0.65438   0.27263   1.000
    O55     O    0.99596   0.81026   0.31157   1.000
    Zr56    Zr   0.78734   0.78721   0.52170   1.000
    O57     O    0.86141   0.86134   0.55127   1.000
    O58     O    0.73877   0.73860   0.55932   1.000
    Zr59    Zr   0.47852   0.21289   0.21275   1.000
    O60     O    0.44081   0.26148   0.26130   1.000
    O61     O    0.44887   0.13872   0.13864   1.000
loop_
    _geom_bond_atom_site_label_1
    _geom_bond_atom_site_label_2
    _geom_bond_distance
    _geom_bond_site_symmetry_2
    _ccdc_geom_bond_type
    Zr14   O15       1.16571      .   S
    N11    O15       2.40015  1_454   S
    Zr14   O16       1.16493      .   S
    N8     O16       2.38855      .   S
    Zr17   O18       1.16491      .   S
    N7     O18       2.38853      .   S
    Zr17   O19       1.16572      .   S
    N13    O19       2.40019  1_656   S
    Zr20   O21       1.21225      .   S
    N9     O21       2.48141      .   S
    Zr20   O22       1.38342      .   S
    N4     O22       2.95420      .   S
    Zr20   O23       1.38315  1_565   S
    N6     O23       2.95339      .   S
    Zr20   O24       1.21229  1_565   S
    N0     O24       2.48153      .   S
    Zr25   O26       1.16475      .   S
    N7     O26       2.38817      .   S
    Zr25   O27       1.16566      .   S
    N9     O27       2.40006  1_665   S
    Zr28   O29       1.38379      .   S
    N4     O29       2.95484      .   S
    Zr28   O30       1.21255      .   S
    N11    O30       2.48189      .   S
    Zr28   O31       1.38279  1_554   S
    N5     O31       2.95187      .   S
    Zr28   O32       1.21255  1_554   S
    N10    O32       2.48190      .   S
    Zr33   O34       1.16478      .   S
    N8     O34       2.38820      .   S
    Zr33   O35       1.16572      .   S
    N0     O35       2.40013  1_544   S
    Zr36   O37       1.21228      .   S
    N12    O37       2.48145      .   S
    Zr36   O38       1.38309  1_545   S
    N3     O38       2.95333      .   S
    Zr36   O39       1.21228  1_545   S
    N10    O39       2.48147      .   S
    Zr36   O40       1.38348      .   S
    N1     O40       2.95430      .   S
    Zr41   O42       1.21255      .   S
    N12    O42       2.48189      .   S
    Zr41   O43       1.38254      .   S
    N5     O43       2.95160      .   S
    Zr41   O44       1.38341  1_455   S
    N6     O44       2.95398      .   S
    Zr41   O45       1.21275  1_455   S
    N13    O45       2.48225      .   S
    Zr46   O47       1.21266      .   S
    N13    O47       2.48208      .   S
    Zr46   O48       1.38200  1_556   S
    N2     O48       2.95174      .   S
    Zr46   O49       1.21246  1_556   S
    N0     O49       2.48175      .   S
    Zr46   O50       1.38392      .   S
    N1     O50       2.95502      .   S
    Zr51   O52       1.38335  1_655   S
    N3     O52       2.95384      .   S
    Zr51   O53       1.21268  1_655   S
    N11    O53       2.48217      .   S
    Zr51   O54       1.38256      .   S
    N2     O54       2.95151      .   S
    Zr51   O55       1.21259      .   S
    N9     O55       2.48196      .   S
    Zr56   O57       1.16567      .   S
    N12    O57       2.40006  1_445   S
    Zr56   O58       1.16474      .   S
    N8     O58       2.38813      .   S
    Zr59   O60       1.16480      .   S
    N7     O60       2.38822      .   S
    Zr59   O61       1.16570      .   S
    N10    O61       2.40013  1_566   S
