# CIF file generated by openbabel 2.4.90, see http://openbabel.sf.net
data_I
_chemical_name_common ''
_cell_length_a 12.19
_cell_length_b 12.328
_cell_length_c 14.117
_cell_angle_alpha 89.884
_cell_angle_beta 68.561
_cell_angle_gamma 89.961
_space_group_name_H-M_alt 'P 1'
_space_group_name_Hall 'P 1'
loop_
    _symmetry_equiv_pos_as_xyz
    x,y,z
loop_
    _atom_site_label
    _atom_site_type_symbol
    _atom_site_fract_x
    _atom_site_fract_y
    _atom_site_fract_z
    _atom_site_occupancy
    H0      H    0.76885   0.86886   0.62221   1.000
    H1      H    0.91661   0.65839   0.79328   1.000
    H2      H    0.94112   0.85085   0.49561   1.000
    H3      H    0.06618   0.75011   0.73487   1.000
    H4      H    0.23100   0.36690   0.87975   1.000
    H5      H    0.08352   0.15971   0.70678   1.000
    H6      H    0.05890   0.35124   0.00504   1.000
    H7      H    0.93290   0.24695   0.76763   1.000
    H8      H    0.23116   0.13110   0.37778   1.000
    H9      H    0.08341   0.34153   0.20667   1.000
    H10     H    0.05890   0.14904   0.50435   1.000
    H11     H    0.93383   0.24988   0.26513   1.000
    H12     H    0.76902   0.63306   0.12022   1.000
    H13     H    0.91649   0.84026   0.29318   1.000
    H14     H    0.94112   0.64871   0.99494   1.000
    H15     H    0.06711   0.75303   0.23234   1.000
    C16     C    0.65151   0.76849   0.73961   1.000
    C17     C    0.76244   0.80761   0.67948   1.000
    C18     C    0.86276   0.76570   0.69355   1.000
    C19     C    0.84451   0.69271   0.77447   1.000
    C20     C    0.73028   0.65845   0.83096   1.000
    C21     C    0.12620   0.85938   0.46581   1.000
    C22     C    0.00935   0.83661   0.52714   1.000
    C23     C    0.00000   0.79592   0.62605   1.000
    C24     C    0.07826   0.78117   0.65954   1.000
    C25     C    0.19163   0.80495   0.59323   1.000
    C26     C    0.34840   0.26821   0.76121   1.000
    C27     C    0.23740   0.30659   0.82190   1.000
    C28     C    0.13707   0.26517   0.80759   1.000
    C29     C    0.15550   0.19350   0.72595   1.000
    C30     C    0.26977   0.16003   0.66883   1.000
    C31     C    0.87368   0.35816   0.03543   1.000
    C32     C    0.99053   0.33573   0.97399   1.000
    C33     C    0.01584   0.29451   0.87545   1.000
    C34     C    0.92115   0.27848   0.84263   1.000
    C35     C    0.80775   0.30179   0.90910   1.000
    C36     C    0.34850   0.23143   0.26035   1.000
    C37     C    0.23756   0.19232   0.32048   1.000
    C38     C    0.13725   0.23424   0.30642   1.000
    C39     C    0.15550   0.30729   0.22554   1.000
    C40     C    0.26973   0.34150   0.16903   1.000
    C41     C    0.87382   0.14050   0.53416   1.000
    C42     C    0.99066   0.16333   0.47284   1.000
    C43     C    0.01613   0.20403   0.37394   1.000
    C44     C    0.92176   0.21880   0.34046   1.000
    C45     C    0.80839   0.19500   0.40675   1.000
    C46     C    0.65162   0.73175   0.23876   1.000
    C47     C    0.76261   0.69339   0.17805   1.000
    C48     C    0.86294   0.73478   0.19239   1.000
    C49     C    0.84451   0.80641   0.27405   1.000
    C50     C    0.73024   0.83990   0.33117   1.000
    C51     C    0.12633   0.64181   0.96455   1.000
    C52     C    0.00949   0.66422   0.00000   1.000
    C53     C    0.00000   0.70545   0.12453   1.000
    C54     C    0.07887   0.72145   0.15736   1.000
    C55     C    0.19227   0.69814   0.09088   1.000
    N56     N    0.63547   0.69098   0.81104   1.000
    N57     N    0.21529   0.84233   0.49841   1.000
    N58     N    0.36457   0.19193   0.68894   1.000
    N59     N    0.78434   0.33991   0.00348   1.000
    N60     N    0.36454   0.30895   0.18892   1.000
    N61     N    0.78474   0.15755   0.50155   1.000
    N62     N    0.63545   0.80802   0.31105   1.000
    N63     N    0.21568   0.66004   0.99650   1.000
loop_
    _geom_bond_atom_site_label_1
    _geom_bond_atom_site_label_2
    _geom_bond_distance
    _geom_bond_site_symmetry_2
    _ccdc_geom_bond_type
    C52    C53       1.79363      .   S
    C52    C51       1.35448  1_554   S
    C52    H14       0.88318  1_454   S
    N59    C31       1.34156      .   S
    N59    C35       1.34231  1_554   S
    H6     C32       1.09127  1_454   S
    C31    C32       1.39821  1_554   S
    C55    C54       1.38796      .   S
    C55    N63       1.34221  1_554   S
    H12    C47       1.08703      .   S
    C53    C54       1.22650      .   S
    C53    C48       1.63415  1_455   S
    C54    H15       1.08779      .   S
    C40    N60       1.34607      .   S
    C40    C39       1.39306      .   S
    C47    C48       1.40684      .   S
    C47    C46       1.39354      .   S
    N60    C36       1.34921      .   S
    C48    C49       1.40495      .   S
    H9     C39       1.09170      .   S
    C39    C38       1.40512      .   S
    C46    N62       1.34940      .   S
    C36    C37       1.39352      .   S
    H11    C44       1.08777      .   S
    C49    H13       1.09145      .   S
    C49    C50       1.39293      .   S
    C38    C37       1.40645      .   S
    C38    C43       1.48242      .   S
    N62    C50       1.34589      .   S
    C37    H8        1.08686      .   S
    C44    C43       1.40600  1_655   S
    C44    C45       1.38773      .   S
    C43    C42       1.40640  1_455   S
    C45    N61       1.34268      .   S
    C21    N57       1.34166      .   S
    C21    C22       1.39833      .   S
    C42    H10       1.09128  1_655   S
    C42    C41       1.39836      .   S
    H2     C22       1.09132  1_655   S
    N57    C25       1.34261      .   S
    N61    C41       1.34169      .   S
    C22    C23       1.44742      .   S
    C25    C24       1.38780      .   S
    H0     C17       1.08688      .   S
    C23    C24       1.22295      .   S
    C23    C18       1.63692  1_455   S
    C24    H3        1.08778      .   S
    C30    N58       1.34587      .   S
    C30    C29       1.39292      .   S
    C17    C18       1.40645      .   S
    C17    C16       1.39350      .   S
    N58    C26       1.34938      .   S
    C18    C19       1.40512      .   S
    H5     C29       1.09146      .   S
    C29    C28       1.40497      .   S
    C16    N56       1.34922      .   S
    C26    C27       1.39355      .   S
    H7     C34       1.08779      .   S
    C19    H1        1.09171      .   S
    C19    C20       1.39310      .   S
    C28    C27       1.40686      .   S
    C28    C33       1.48267      .   S
    N56    C20       1.34609      .   S
    C27    H4        1.08704      .   S
    C34    C33       1.40633  1_655   S
    C34    C35       1.38785      .   S
    C33    C32       1.40618  1_455   S
    C51    N63       1.34165      .   S
