# CIF file generated by openbabel 2.4.90, see http://openbabel.sf.net
data_I
_chemical_name_common ''
_cell_length_a 12.19
_cell_length_b 12.328
_cell_length_c 14.117
_cell_angle_alpha 89.884
_cell_angle_beta 68.561
_cell_angle_gamma 89.961
_space_group_name_H-M_alt 'P 1'
_space_group_name_Hall 'P 1'
loop_
    _symmetry_equiv_pos_as_xyz
    x,y,z
loop_
    _atom_site_label
    _atom_site_type_symbol
    _atom_site_fract_x
    _atom_site_fract_y
    _atom_site_fract_z
    _atom_site_occupancy
    H0      H    0.35227   0.77087   0.73427   1.000
    H1      H    0.64718   0.26779   0.76813   1.000
    H2      H    0.64773   0.22910   0.26574   1.000
    H3      H    0.35283   0.73215   0.23187   1.000
    C4      C    0.53919   0.80880   0.73052   1.000
    C5      C    0.70451   0.58221   0.91964   1.000
    C6      C    0.16339   0.90703   0.35890   1.000
    C7      C    0.29897   0.79261   0.61969   1.000
    C8      C    0.46074   0.30795   0.77055   1.000
    C9      C    0.29538   0.08538   0.57927   1.000
    C10     C    0.83687   0.40695   0.14163   1.000
    C11     C    0.70021   0.28889   0.88299   1.000
    C12     C    0.46081   0.19113   0.26946   1.000
    C13     C    0.29548   0.41777   0.08037   1.000
    C14     C    0.83661   0.09292   0.64110   1.000
    C15     C    0.70106   0.20732   0.38029   1.000
    C16     C    0.53928   0.69201   0.22943   1.000
    C17     C    0.70464   0.91456   0.42072   1.000
    C18     C    0.16314   0.59301   0.85835   1.000
    C19     C    0.29981   0.71105   0.11700   1.000
    O20     O    0.44891   0.74680   0.77123   1.000
    O21     O    0.53654   0.89744   0.68728   1.000
    O22     O    0.60640   0.52873   0.94315   1.000
    O23     O    0.77258   0.57444   0.96703   1.000
    O24     O    0.27358   0.93538   0.32133   1.000
    O25     O    0.08956   0.91568   0.31784   1.000
    O26     O    0.39887   0.79576   0.55124   1.000
    O27     O    0.27664   0.78189   0.71681   1.000
    O28     O    0.55102   0.24615   0.72932   1.000
    O29     O    0.46329   0.39594   0.81451   1.000
    O30     O    0.39392   0.03230   0.55468   1.000
    O31     O    0.22659   0.07848   0.53261   1.000
    O32     O    0.72676   0.43567   0.17903   1.000
    O33     O    0.91111   0.41643   0.18214   1.000
    O34     O    0.60038   0.29223   0.95149   1.000
    O35     O    0.72255   0.27771   0.78594   1.000
    O36     O    0.55107   0.25317   0.22880   1.000
    O37     O    0.46348   0.10249   0.31270   1.000
    O38     O    0.39363   0.47121   0.05683   1.000
    O39     O    0.22743   0.42551   0.03296   1.000
    O40     O    0.72640   0.06459   0.67868   1.000
    O41     O    0.91044   0.08427   0.68216   1.000
    O42     O    0.60116   0.20420   0.44875   1.000
    O43     O    0.72338   0.21808   0.28317   1.000
    O44     O    0.44899   0.75379   0.27067   1.000
    O45     O    0.53674   0.60400   0.18548   1.000
    O46     O    0.60610   0.96764   0.44528   1.000
    O47     O    0.77343   0.92150   0.46738   1.000
    O48     O    0.27326   0.56430   0.82092   1.000
    O49     O    0.08891   0.58357   0.81783   1.000
    O50     O    0.39964   0.70771   0.00000   1.000
    O51     O    0.27746   0.72225   0.21405   1.000
loop_
    _geom_bond_atom_site_label_1
    _geom_bond_atom_site_label_2
    _geom_bond_distance
    _geom_bond_site_symmetry_2
    _ccdc_geom_bond_type
    O50    C19       1.65581      .   S
    O39    C13       1.24522      .   S
    O38    C13       1.29823      .   S
    C19    O51       1.30307      .   S
    C10    O32       1.29918      .   S
    C10    O33       1.24029      .   S
    O45    C16       1.25695      .   S
    O51    H3        1.04469      .   S
    O36    C12       1.28946      .   S
    C16    O44       1.28945      .   S
    H2     O43       1.04650      .   S
    C12    O37       1.25681      .   S
    O43    C15       1.30298      .   S
    O25    C6        1.24032      .   S
    O24    C6        1.29885      .   S
    C15    O42       1.24825      .   S
    C17    O46       1.29872      .   S
    C17    O47       1.24436      .   S
    O31    C9        1.24432      .   S
    O26    C7        1.24823      .   S
    O30    C9        1.29875      .   S
    C7     O27       1.30298      .   S
    C14    O40       1.29890      .   S
    C14    O41       1.24026      .   S
    O21    C4        1.25680      .   S
    O27    H0        1.04648      .   S
    O28    C8        1.28943      .   S
    C4     O20       1.28947      .   S
    H1     O35       1.04470      .   S
    C8     O29       1.25694      .   S
    O35    C11       1.30305      .   S
    O49    C18       1.24029      .   S
    O48    C18       1.29921      .   S
    C11    O34       1.24806      .   S
    C5     O22       1.29826      .   S
    C5     O23       1.24523      .   S
