# CIF file generated by openbabel 2.4.90, see http://openbabel.sf.net
data_I
_chemical_name_common ''
_cell_length_a 12.19
_cell_length_b 12.328
_cell_length_c 14.117
_cell_angle_alpha 89.884
_cell_angle_beta 68.561
_cell_angle_gamma 89.961
_space_group_name_H-M_alt 'P 1'
_space_group_name_Hall 'P 1'
loop_
    _symmetry_equiv_pos_as_xyz
    x,y,z
loop_
    _atom_site_label
    _atom_site_type_symbol
    _atom_site_fract_x
    _atom_site_fract_y
    _atom_site_fract_z
    _atom_site_occupancy
    C0      C    0.53919   0.80880   0.73052   1.000
    C1      C    0.70451   0.58221   0.91964   1.000
    C2      C    0.16339   0.90703   0.35890   1.000
    C3      C    0.29897   0.79261   0.61969   1.000
    C4      C    0.46074   0.30795   0.77055   1.000
    C5      C    0.29538   0.08538   0.57927   1.000
    C6      C    0.83687   0.40695   0.14163   1.000
    C7      C    0.70021   0.28889   0.88299   1.000
    C8      C    0.46081   0.19113   0.26946   1.000
    C9      C    0.29548   0.41777   0.08037   1.000
    C10     C    0.83661   0.09292   0.64110   1.000
    C11     C    0.70106   0.20732   0.38029   1.000
    C12     C    0.53928   0.69201   0.22943   1.000
    C13     C    0.70464   0.91456   0.42072   1.000
    C14     C    0.16314   0.59301   0.85835   1.000
    C15     C    0.29981   0.71105   0.11700   1.000
