# CIF file generated by openbabel 2.4.90, see http://openbabel.sf.net
data_I
_chemical_name_common ''
_cell_length_a 12.19
_cell_length_b 12.328
_cell_length_c 14.117
_cell_angle_alpha 89.884
_cell_angle_beta 68.561
_cell_angle_gamma 89.961
_space_group_name_H-M_alt 'P 1'
_space_group_name_Hall 'P 1'
loop_
    _symmetry_equiv_pos_as_xyz
    x,y,z
loop_
    _atom_site_label
    _atom_site_type_symbol
    _atom_site_fract_x
    _atom_site_fract_y
    _atom_site_fract_z
    _atom_site_occupancy
    Zr0     Zr   0.42469   0.57978   0.89341   1.000
    Zr1     Zr   0.57473   0.08010   0.60641   1.000
    Zr2     Zr   0.57532   0.42016   0.10657   1.000
    Zr3     Zr   0.42528   0.91984   0.39358   1.000
    N4      N    0.92524   0.72378   0.15625   1.000
    O5      O    0.72780   0.79385   0.25428   1.000
    O6      O    0.12271   0.67184   0.05060   1.000
    N7      N    0.07577   0.27618   0.84211   1.000
    O8      O    0.87780   0.32811   0.94856   1.000
    O9      O    0.27271   0.20610   0.74489   1.000
    N10     N    0.92503   0.77703   0.65908   1.000
    O11     O    0.72756   0.70621   0.75565   1.000
    O12     O    0.12266   0.82906   0.55254   1.000
    N13     N    0.07599   0.22291   0.34090   1.000
    O14     O    0.27296   0.29373   0.24432   1.000
    O15     O    0.87786   0.17087   0.44744   1.000
    C16     C    0.66833   0.21468   0.34449   1.000
    O17     O    0.62814   0.17841   0.43603   1.000
    O18     O    0.79184   0.21336   0.35585   1.000
    C19     C    0.17510   0.58029   0.83237   1.000
    O20     O    0.26204   0.57617   0.84477   1.000
    O21     O    0.10504   0.62544   0.93311   1.000
    C22     C    0.17551   0.91937   0.33269   1.000
    O23     O    0.10521   0.87474   0.43420   1.000
    O24     O    0.26247   0.92349   0.34507   1.000
    C25     C    0.30552   0.43816   0.05672   1.000
    O26     O    0.24241   0.36972   0.14476   1.000
    O27     O    0.39500   0.44192   0.06921   1.000
    C28     C    0.33243   0.71829   0.14073   1.000
    O29     O    0.37230   0.68102   0.04372   1.000
    O30     O    0.20903   0.71624   0.13541   1.000
    C31     C    0.82491   0.41968   0.16760   1.000
    O32     O    0.73798   0.42380   0.15520   1.000
    O33     O    0.89522   0.37452   0.06646   1.000
    C34     C    0.33169   0.78528   0.65550   1.000
    O35     O    0.37188   0.82154   0.56396   1.000
    O36     O    0.20843   0.78659   0.64414   1.000
    C37     C    0.66758   0.28165   0.84714   1.000
    O38     O    0.62772   0.31893   0.93808   1.000
    O39     O    0.79123   0.28371   0.85811   1.000
    C40     C    0.69472   0.93457   0.44446   1.000
    O41     O    0.60521   0.93915   0.43195   1.000
    O42     O    0.75803   0.86753   0.35528   1.000
    C43     C    0.50834   0.68327   0.22852   1.000
    O44     O    0.63434   0.70055   0.21185   1.000
    O45     O    0.47274   0.76004   0.28032   1.000
    O46     O    0.53218   0.59768   0.18727   1.000
    C47     C    0.49168   0.31668   0.77146   1.000
    O48     O    0.52728   0.23990   0.71966   1.000
    O49     O    0.46784   0.40227   0.81271   1.000
    O50     O    0.36593   0.29941   0.78773   1.000
    C51     C    0.30530   0.06539   0.55552   1.000
    O52     O    0.39481   0.06079   0.56803   1.000
    O53     O    0.24223   0.13241   0.64430   1.000
    C54     C    0.49179   0.18226   0.27032   1.000
    O55     O    0.46809   0.09671   0.31173   1.000
    O56     O    0.52749   0.25947   0.21900   1.000
    O57     O    0.36606   0.19968   0.28661   1.000
    C58     C    0.50821   0.81768   0.72968   1.000
    O59     O    0.63420   0.80026   0.71337   1.000
    O60     O    0.53192   0.90322   0.68826   1.000
    O61     O    0.47251   0.74048   0.78100   1.000
    C62     C    0.69450   0.56179   0.94327   1.000
    O63     O    0.60502   0.55802   0.93077   1.000
    O64     O    0.75786   0.63024   0.85523   1.000
    C65     C    0.82449   0.08059   0.66731   1.000
    O66     O    0.73753   0.07647   0.65493   1.000
    O67     O    0.89505   0.12520   0.56579   1.000
    O68     O    0.66349   0.97345   0.48791   1.000
    O69     O    0.33656   0.47612   0.01293   1.000
    O70     O    0.66345   0.52383   0.98705   1.000
    O71     O    0.33653   0.02650   0.51206   1.000
loop_
    _geom_bond_atom_site_label_1
    _geom_bond_atom_site_label_2
    _geom_bond_distance
    _geom_bond_site_symmetry_2
    _ccdc_geom_bond_type
    N4     O5        2.45379      .   S
    Zr3    O5        3.81862      .   S
    N4     O6        2.40962  1_655   S
    Zr0    O6        3.71437  1_556   S
    N7     O8        2.41719  1_455   S
    Zr2    O8        3.72172  1_554   S
    N7     O9        2.44677      .   S
    Zr1    O9        3.81209      .   S
    N10    O11       2.45247      .   S
    Zr0    O11       3.81945      .   S
    N10    O12       2.41382  1_655   S
    Zr3    O12       3.72029      .   S
    N13    O14       2.44770      .   S
    Zr2    O14       3.81467      .   S
    N13    O15       2.41859  1_455   S
    Zr1    O15       3.72508      .   S
    C16    O17       1.28264      .   S
    Zr1    O17       2.55389      .   S
    C16    O18       1.57143      .   S
    N13    O18       3.39443  1_455   S
    C19    O20       1.13658      .   S
    Zr0    O20       2.32386      .   S
    C19    O21       1.47525      .   S
    N4     O21       3.34084  1_654   S
    C22    O23       1.47999      .   S
    N10    O23       3.35321  1_655   S
    C22    O24       1.13685      .   S
    Zr3    O24       2.32442      .   S
    C25    O26       1.46499      .   S
    N13    O26       3.30701      .   S
    C25    O27       1.16777      .   S
    Zr2    O27       2.45524      .   S
    C28    O29       1.35597      .   S
    Zr0    O29       2.34245  1_556   S
    C28    O30       1.53348      .   S
    N4     O30       3.36440  1_655   S
    C31    O32       1.13657      .   S
    Zr2    O32       2.32382      .   S
    C31    O33       1.48024      .   S
    N7     O33       3.35578  1_456   S
    C34    O35       1.28263      .   S
    Zr3    O35       2.55380      .   S
    C34    O36       1.56840      .   S
    N10    O36       3.38532  1_655   S
    C37    O38       1.28126      .   S
    Zr2    O38       2.55404  1_554   S
    C37    O39       1.57072      .   S
    N7     O39       3.39375  1_455   S
    C40    O41       1.16874      .   S
    Zr3    O41       2.45566      .   S
    C40    O42       1.46853      .   S
    N4     O42       3.31942      .   S
    C43    O44       1.48186      .   S
    N4     O44       3.35233      .   S
    C43    O45       1.17861      .   S
    Zr3    O45       2.47117      .   S
    C43    O46       1.18969      .   S
    Zr2    O46       2.43600      .   S
    C47    O48       1.17864      .   S
    Zr1    O48       2.47126      .   S
    C47    O49       1.18965      .   S
    Zr0    O49       2.43589      .   S
    C47    O50       1.48019      .   S
    N7     O50       3.34622      .   S
    C51    O52       1.16871      .   S
    Zr1    O52       2.45564      .   S
    C51    O53       1.46408      .   S
    N7     O53       3.30596      .   S
    C54    O55       1.18828      .   S
    Zr3    O55       2.43163  1_565   S
    C54    O56       1.17786      .   S
    Zr2    O56       2.46904      .   S
    C54    O57       1.47992      .   S
    N13    O57       3.34520      .   S
    C58    O59       1.48295      .   S
    N10    O59       3.35423      .   S
    C58    O60       1.18826      .   S
    Zr1    O60       2.43161  1_545   S
    C58    O61       1.17782      .   S
    Zr0    O61       2.46891      .   S
    C62    O63       1.16779      .   S
    Zr0    O63       2.45531      .   S
    C62    O64       1.46567      .   S
    N10    O64       3.30988      .   S
    C65    O66       1.13684      .   S
    Zr1    O66       2.32439      .   S
    C65    O67       1.48075      .   S
    N13    O67       3.35623  1_455   S
    C40    O68       0.76241      .   S
    Zr1    O68       2.09315  1_545   S
    Zr0    O69       2.07426  1_556   S
    C25    O69       0.75649      .   S
    Zr2    O70       2.07420  1_554   S
    C62    O70       0.75647      .   S
    C51    O71       0.76243      .   S
    Zr3    O71       2.09317  1_565   S
