# CIF file generated by openbabel 2.4.90, see http://openbabel.sf.net
data_I
_chemical_name_common ''
_cell_length_a 12.19
_cell_length_b 12.328
_cell_length_c 14.117
_cell_angle_alpha 89.884
_cell_angle_beta 68.561
_cell_angle_gamma 89.961
_space_group_name_H-M_alt 'P 1'
_space_group_name_Hall 'P 1'
loop_
    _symmetry_equiv_pos_as_xyz
    x,y,z
loop_
    _atom_site_label
    _atom_site_type_symbol
    _atom_site_fract_x
    _atom_site_fract_y
    _atom_site_fract_z
    _atom_site_occupancy
    Zr0     Zr   0.42469   0.57978   0.89341   1.000
    Zr1     Zr   0.57473   0.08010   0.60641   1.000
    Zr2     Zr   0.57532   0.42016   0.10657   1.000
    Zr3     Zr   0.42528   0.91984   0.39358   1.000
    Zr4     Zr   0.35227   0.77087   0.73427   1.000
    Zr5     Zr   0.64718   0.26779   0.76813   1.000
    Zr6     Zr   0.64773   0.22910   0.26574   1.000
    Zr7     Zr   0.35283   0.73215   0.23187   1.000
    Zr8     Zr   0.53919   0.80880   0.73052   1.000
    Zr9     Zr   0.70451   0.58221   0.91964   1.000
    Zr10    Zr   0.16339   0.90703   0.35890   1.000
    Zr11    Zr   0.29897   0.79261   0.61969   1.000
    Zr12    Zr   0.46074   0.30795   0.77055   1.000
    Zr13    Zr   0.29538   0.08538   0.57927   1.000
    Zr14    Zr   0.83687   0.40695   0.14163   1.000
    Zr15    Zr   0.70021   0.28889   0.88299   1.000
    Zr16    Zr   0.46081   0.19113   0.26946   1.000
    Zr17    Zr   0.29548   0.41777   0.08037   1.000
    Zr18    Zr   0.83661   0.09292   0.64110   1.000
    Zr19    Zr   0.70106   0.20732   0.38029   1.000
    Zr20    Zr   0.53928   0.69201   0.22943   1.000
    Zr21    Zr   0.70464   0.91456   0.42072   1.000
    Zr22    Zr   0.16314   0.59301   0.85835   1.000
    Zr23    Zr   0.29981   0.71105   0.11700   1.000
    Zr24    Zr   0.44891   0.74680   0.77123   1.000
    Zr25    Zr   0.53654   0.89744   0.68728   1.000
    Zr26    Zr   0.60640   0.52873   0.94315   1.000
    Zr27    Zr   0.77258   0.57444   0.96703   1.000
    Zr28    Zr   0.27358   0.93538   0.32133   1.000
    Zr29    Zr   0.08956   0.91568   0.31784   1.000
    Zr30    Zr   0.39887   0.79576   0.55124   1.000
    Zr31    Zr   0.27664   0.78189   0.71681   1.000
    Zr32    Zr   0.55102   0.24615   0.72932   1.000
    Zr33    Zr   0.46329   0.39594   0.81451   1.000
    Zr34    Zr   0.39392   0.03230   0.55468   1.000
    Zr35    Zr   0.22659   0.07848   0.53261   1.000
    Zr36    Zr   0.72676   0.43567   0.17903   1.000
    Zr37    Zr   0.91111   0.41643   0.18214   1.000
    Zr38    Zr   0.60038   0.29223   0.95149   1.000
    Zr39    Zr   0.72255   0.27771   0.78594   1.000
    Zr40    Zr   0.55107   0.25317   0.22880   1.000
    Zr41    Zr   0.46348   0.10249   0.31270   1.000
    Zr42    Zr   0.39363   0.47121   0.05683   1.000
    Zr43    Zr   0.22743   0.42551   0.03296   1.000
    Zr44    Zr   0.72640   0.06459   0.67868   1.000
    Zr45    Zr   0.91044   0.08427   0.68216   1.000
    Zr46    Zr   0.60116   0.20420   0.44875   1.000
    Zr47    Zr   0.72338   0.21808   0.28317   1.000
    Zr48    Zr   0.44899   0.75379   0.27067   1.000
    Zr49    Zr   0.53674   0.60400   0.18548   1.000
    Zr50    Zr   0.60610   0.96764   0.44528   1.000
    Zr51    Zr   0.77343   0.92150   0.46738   1.000
    Zr52    Zr   0.27326   0.56430   0.82092   1.000
    Zr53    Zr   0.08891   0.58357   0.81783   1.000
    Zr54    Zr   0.39964   0.70771   0.00000   1.000
    Zr55    Zr   0.27746   0.72225   0.21405   1.000
    O56     O    0.34972   0.70938   0.05850   1.000
    O57     O    0.41217   0.64374   0.94670   1.000
    O58     O    0.26146   0.42164   0.05666   1.000
    O59     O    0.32606   0.50264   0.96318   1.000
    O60     O    0.34456   0.44449   0.06860   1.000
    O61     O    0.40916   0.52550   0.97512   1.000
    O62     O    0.65104   0.42792   0.14280   1.000
    O63     O    0.55603   0.51208   0.14602   1.000
    O64     O    0.56319   0.33667   0.16768   1.000
    O65     O    0.59086   0.47445   0.02486   1.000
    O66     O    0.58785   0.35620   0.02903   1.000
    O67     O    0.67395   0.49730   0.03680   1.000
    O68     O    0.28863   0.71665   0.16553   1.000
    O69     O    0.78182   0.42131   0.16033   1.000
    O70     O    0.87399   0.41169   0.16188   1.000
    O71     O    0.53801   0.64801   0.20745   1.000
    O72     O    0.31515   0.72720   0.22296   1.000
    O73     O    0.50594   0.22215   0.24913   1.000
    O74     O    0.49414   0.72290   0.25005   1.000
    O75     O    0.68555   0.22359   0.27446   1.000
    O76     O    0.46215   0.14681   0.29108   1.000
    O77     O    0.43713   0.83681   0.33213   1.000
    O78     O    0.71222   0.21270   0.33173   1.000
    O79     O    0.44438   0.01116   0.35314   1.000
    O80     O    0.12647   0.91136   0.33837   1.000
    O81     O    0.21849   0.92121   0.34012   1.000
    O82     O    0.34943   0.92761   0.35746   1.000
    O83     O    0.65111   0.20576   0.41452   1.000
    O84     O    0.41208   0.85780   0.47241   1.000
    O85     O    0.40960   0.97607   0.47413   1.000
    O86     O    0.65537   0.94110   0.43300   1.000
    O87     O    0.73903   0.91803   0.44405   1.000
    O88     O    0.59042   0.02387   0.52584   1.000
    O89     O    0.58794   0.14215   0.52758   1.000
    O90     O    0.26098   0.08193   0.55594   1.000
    O91     O    0.34892   0.79418   0.58546   1.000
    O92     O    0.34465   0.05884   0.56697   1.000
    O93     O    0.65057   0.07235   0.64254   1.000
    O94     O    0.55563   0.98877   0.64684   1.000
    O95     O    0.56287   0.16312   0.66787   1.000
    O96     O    0.28780   0.78725   0.66825   1.000
    O97     O    0.78151   0.07876   0.65989   1.000
    O98     O    0.87353   0.08859   0.66163   1.000
    O99     O    0.53787   0.85312   0.70890   1.000
    O100    O    0.31445   0.77638   0.72554   1.000
    O101    O    0.50588   0.27705   0.74994   1.000
    O102    O    0.49405   0.77780   0.75088   1.000
    O103    O    0.68486   0.27275   0.77704   1.000
    O104    O    0.46201   0.35195   0.79253   1.000
    O105    O    0.43680   0.66329   0.83232   1.000
    O106    O    0.71138   0.28330   0.83447   1.000
    O107    O    0.44399   0.48786   0.85396   1.000
    O108    O    0.12602   0.58829   0.83809   1.000
    O109    O    0.21820   0.57866   0.83964   1.000
    O110    O    0.34898   0.57204   0.85716   1.000
    O111    O    0.65030   0.29056   0.91724   1.000
    O112    O    0.65545   0.55547   0.93139   1.000
    O113    O    0.73855   0.57832   0.94334   1.000
    O114    O    0.51554   0.55425   0.91828   1.000
    O115    O    0.48433   0.05620   0.58054   1.000
    O116    O    0.32594   0.99916   0.46309   1.000
    O117    O    0.48447   0.44569   0.08170   1.000
    O118    O    0.51569   0.94374   0.41943   1.000
    O119    O    0.67408   0.00080   0.53689   1.000
    N120    N    0.92524   0.72378   0.15625   1.000
    O121    O    0.82134   0.80050   0.26610   1.000
    O122    O    0.76034   0.71783   0.19517   1.000
    O123    O    0.72780   0.79385   0.25428   1.000
    O124    O    0.03499   0.67059   0.03385   1.000
    O125    O    0.12271   0.67184   0.05060   1.000
    O126    O    0.08564   0.71419   0.13009   1.000
    N127    N    0.07577   0.27618   0.84211   1.000
    O128    O    0.17917   0.19944   0.73308   1.000
    O129    O    0.24017   0.28213   0.80399   1.000
    O130    O    0.91488   0.28576   0.86907   1.000
    O131    O    0.87780   0.32811   0.94856   1.000
    O132    O    0.27271   0.20610   0.74489   1.000
    O133    O    0.96552   0.32937   0.96532   1.000
    N134    N    0.92503   0.77703   0.65908   1.000
    O135    O    0.03491   0.83012   0.53572   1.000
    O136    O    0.82121   0.69868   0.76719   1.000
    O137    O    0.08517   0.78791   0.63277   1.000
    O138    O    0.72756   0.70621   0.75565   1.000
    O139    O    0.76019   0.78284   0.69707   1.000
    O140    O    0.12266   0.82906   0.55254   1.000
    N141    N    0.07599   0.22291   0.34090   1.000
    O142    O    0.24032   0.21709   0.30290   1.000
    O143    O    0.91536   0.21203   0.36721   1.000
    O144    O    0.27296   0.29373   0.24432   1.000
    O145    O    0.17930   0.30127   0.23280   1.000
    O146    O    0.96561   0.16981   0.46426   1.000
    O147    O    0.87786   0.17087   0.44744   1.000
loop_
    _geom_bond_atom_site_label_1
    _geom_bond_atom_site_label_2
    _geom_bond_distance
    _geom_bond_site_symmetry_2
    _ccdc_geom_bond_type
    Zr54   O56       0.82790      .   S
    Zr23   O56       0.82790      .   S
    Zr54   O57       1.06276  1_554   S
    Zr0    O57       1.06276      .   S
    Zr43   O58       0.62261      .   S
    Zr17   O58       0.62261      .   S
    Zr43   O59       1.56593  1_554   S
    Zr0    O59       1.56593      .   S
    Zr42   O60       0.64912      .   S
    Zr17   O60       0.64912      .   S
    Zr42   O61       1.28517  1_554   S
    Zr0    O61       1.28517      .   S
    Zr2    O62       1.21170      .   S
    Zr36   O62       1.21170      .   S
    Zr2    O63       1.24742      .   S
    Zr49   O63       1.24742      .   S
    Zr2    O64       1.31494      .   S
    Zr40   O64       1.31494      .   S
    Zr2    O65       1.28516      .   S
    Zr26   O65       1.28516  1_556   S
    Zr2    O66       1.31317      .   S
    Zr38   O66       1.31317  1_556   S
    Zr2    O67       1.56588      .   S
    Zr27   O67       1.56588  1_556   S
    Zr23   O68       0.65153      .   S
    Zr55   O68       0.65153      .   S
    Zr14   O69       0.64959      .   S
    Zr36   O69       0.64959      .   S
    Zr14   O70       0.62015      .   S
    Zr37   O70       0.62015      .   S
    Zr49   O71       0.62848      .   S
    Zr20   O71       0.62848      .   S
    Zr55   O72       0.52234      .   S
    Zr7    O72       0.52234      .   S
    Zr40   O73       0.64473      .   S
    Zr16   O73       0.64473      .   S
    Zr20   O74       0.64472      .   S
    Zr48   O74       0.64472      .   S
    Zr6    O75       0.52325      .   S
    Zr47   O75       0.52325      .   S
    Zr16   O76       0.62840      .   S
    Zr41   O76       0.62840      .   S
    Zr48   O77       1.31637      .   S
    Zr3    O77       1.31637      .   S
    Zr47   O78       0.65149      .   S
    Zr19   O78       0.65149      .   S
    Zr41   O79       1.24431      .   S
    Zr3    O79       1.24431  1_565   S
    Zr29   O80       0.62016      .   S
    Zr10   O80       0.62016      .   S
    Zr28   O81       0.64943      .   S
    Zr10   O81       0.64943      .   S
    Zr28   O82       1.21179      .   S
    Zr3    O82       1.21179      .   S
    Zr19   O83       0.62413      .   S
    Zr46   O83       0.62413      .   S
    Zr3    O84       1.30958      .   S
    Zr30   O84       1.30958      .   S
    Zr3    O85       1.28619      .   S
    Zr34   O85       1.28619  1_545   S
    Zr21   O86       0.64936      .   S
    Zr50   O86       0.64936      .   S
    Zr21   O87       0.62218      .   S
    Zr51   O87       0.62218      .   S
    Zr50   O88       1.28630  1_565   S
    Zr1    O88       1.28630      .   S
    Zr46   O89       1.30965      .   S
    Zr1    O89       1.30965      .   S
    Zr35   O90       0.62216      .   S
    Zr13   O90       0.62216      .   S
    Zr30   O91       0.62411      .   S
    Zr11   O91       0.62411      .   S
    Zr34   O92       0.64938      .   S
    Zr13   O92       0.64938      .   S
    Zr1    O93       1.21178      .   S
    Zr44   O93       1.21178      .   S
    Zr1    O94       1.24431  1_545   S
    Zr25   O94       1.24431      .   S
    Zr1    O95       1.31642      .   S
    Zr32   O95       1.31642      .   S
    Zr11   O96       0.65149      .   S
    Zr31   O96       0.65149      .   S
    Zr18   O97       0.64945      .   S
    Zr44   O97       0.64945      .   S
    Zr18   O98       0.62013      .   S
    Zr45   O98       0.62013      .   S
    Zr25   O99       0.62840      .   S
    Zr8    O99       0.62840      .   S
    Zr31   O100      0.52324      .   S
    Zr4    O100      0.52324      .   S
    Zr32   O101      0.64471      .   S
    Zr12   O101      0.64471      .   S
    Zr8    O102      0.64473      .   S
    Zr24   O102      0.64473      .   S
    Zr5    O103      0.52235      .   S
    Zr39   O103      0.52235      .   S
    Zr12   O104      0.62847      .   S
    Zr33   O104      0.62847      .   S
    Zr24   O105      1.31486      .   S
    Zr0    O105      1.31486      .   S
    Zr39   O106      0.65153      .   S
    Zr15   O106      0.65153      .   S
    Zr33   O107      1.24735      .   S
    Zr0    O107      1.24735      .   S
    Zr53   O108      0.62014      .   S
    Zr22   O108      0.62014      .   S
    Zr52   O109      0.64961      .   S
    Zr22   O109      0.64961      .   S
    Zr52   O110      1.21174      .   S
    Zr0    O110      1.21174      .   S
    Zr15   O111      0.62403      .   S
    Zr38   O111      0.62403      .   S
    Zr9    O112      0.64913      .   S
    Zr26   O112      0.64913      .   S
    Zr9    O113      0.62261      .   S
    Zr27   O113      0.62261      .   S
    Zr26   O114      1.31608      .   S
    Zr0    O114      1.31608      .   S
    Zr34   O115      1.31513      .   S
    Zr1    O115      1.31513      .   S
    Zr35   O116      1.58723  1_545   S
    Zr3    O116      1.58723      .   S
    Zr42   O117      1.31603      .   S
    Zr2    O117      1.31603      .   S
    Zr50   O118      1.31512      .   S
    Zr3    O118      1.31512      .   S
    Zr51   O119      1.58713  1_565   S
    Zr1    O119      1.58713      .   S
    N120   O121      1.86335      .   S
    Zr21   O121      2.55057      .   S
    N120   O122      1.88155      .   S
    Zr20   O122      2.57773      .   S
    N120   O123      2.45379      .   S
    Zr3    O123      3.81862      .   S
    N120   O124      1.87588  1_655   S
    Zr22   O124      2.58295  1_556   S
    N120   O125      2.40962  1_655   S
    Zr0    O125      3.71437  1_556   S
    N120   O126      1.85623  1_655   S
    Zr23   O126      2.54926      .   S
    N127   O128      1.85438      .   S
    Zr13   O128      2.54159      .   S
    N127   O129      1.87692      .   S
    Zr12   O129      2.57413      .   S
    N127   O130      1.86000  1_455   S
    Zr15   O130      2.55181      .   S
    N127   O131      2.41719  1_455   S
    Zr2    O131      3.72172  1_554   S
    N127   O132      2.44677      .   S
    Zr1    O132      3.81209      .   S
    N127   O133      1.88575  1_455   S
    Zr14   O133      2.59297  1_554   S
    N134   O135      1.88325  1_655   S
    Zr10   O135      2.59172      .   S
    N134   O136      1.85676      .   S
    Zr9    O136      2.54352      .   S
    N134   O137      1.85380  1_655   S
    Zr11   O137      2.54529      .   S
    N134   O138      2.45247      .   S
    Zr0    O138      3.81945      .   S
    N134   O139      1.88215      .   S
    Zr8    O139      2.57922      .   S
    N134   O140      2.41382  1_655   S
    Zr3    O140      3.72029      .   S
    N141   O142      1.87621      .   S
    Zr16   O142      2.57318      .   S
    N141   O143      1.85976  1_455   S
    Zr19   O143      2.55130      .   S
    N141   O144      2.44770      .   S
    Zr2    O144      3.81467      .   S
    N141   O145      1.85441      .   S
    Zr17   O145      2.54194      .   S
    N141   O146      1.88564  1_455   S
    Zr18   O146      2.59341      .   S
    N141   O147      2.41859  1_455   S
    Zr1    O147      3.72508      .   S
