# CIF file generated by openbabel 2.4.90, see http://openbabel.sf.net
data_I
_chemical_name_common ''
_cell_length_a 13.218
_cell_length_b 13.2
_cell_length_c 18.517
_cell_angle_alpha 83.284
_cell_angle_beta 83.11
_cell_angle_gamma 67.658
_space_group_name_H-M_alt 'P 1'
_space_group_name_Hall 'P 1'
loop_
    _symmetry_equiv_pos_as_xyz
    x,y,z
loop_
    _atom_site_label
    _atom_site_type_symbol
    _atom_site_fract_x
    _atom_site_fract_y
    _atom_site_fract_z
    _atom_site_occupancy
    H0      H    0.61177   0.38040   0.66730   1.000
    H1      H    0.45027   0.54374   0.62609   1.000
    H2      H    0.41012   0.18699   0.70190   1.000
    H3      H    0.81902   0.19160   0.92575   1.000
    H4      H    0.69020   0.93956   0.96188   1.000
    H5      H    0.07207   0.94507   0.64796   1.000
    H6      H    0.86398   0.76550   0.67263   1.000
    H7      H    0.61954   0.38824   0.83257   1.000
    H8      H    0.45544   0.54971   0.87354   1.000
    H9      H    0.81153   0.59128   0.79852   1.000
    H10     H    0.80820   0.18264   0.57379   1.000
    H11     H    0.06041   0.31102   0.53853   1.000
    H12     H    0.05301   0.92809   0.85119   1.000
    H13     H    0.23302   0.13574   0.82782   1.000
    H14     H    0.38825   0.61959   0.33271   1.000
    H15     H    0.54975   0.45625   0.37392   1.000
    H16     H    0.58990   0.81299   0.29803   1.000
    H17     H    0.18101   0.80838   0.07425   1.000
    H18     H    0.30985   0.06040   0.03813   1.000
    H19     H    0.92796   0.05491   0.35200   1.000
    H20     H    0.13603   0.23449   0.32737   1.000
    H21     H    0.38048   0.61174   0.16742   1.000
    H22     H    0.54458   0.45028   0.12646   1.000
    H23     H    0.18851   0.40869   0.20147   1.000
    H24     H    0.19181   0.81735   0.42622   1.000
    H25     H    0.93963   0.68893   0.46147   1.000
    H26     H    0.94705   0.07188   0.14882   1.000
    H27     H    0.76701   0.86425   0.17218   1.000
    C28     C    0.61538   0.17636   0.71330   1.000
    C29     C    0.52001   0.27398   0.68704   1.000
    C30     C    0.53229   0.37439   0.66522   1.000
    C31     C    0.44286   0.46471   0.64237   1.000
    C32     C    0.34021   0.45667   0.64010   1.000
    C33     C    0.32782   0.35550   0.66100   1.000
    C34     C    0.41810   0.26558   0.68486   1.000
    C35     C    0.24715   0.55643   0.61686   1.000
    C36     C    0.22311   0.33588   0.65810   1.000
    C37     C    0.79253   0.12544   0.91840   1.000
    C38     C    0.72601   0.99847   0.93756   1.000
    C39     C    0.00342   0.91909   0.66390   1.000
    C40     C    0.89819   0.82750   0.67596   1.000
    C41     C    0.82351   0.38510   0.78712   1.000
    C42     C    0.72539   0.48060   0.81325   1.000
    C43     C    0.62510   0.46800   0.83477   1.000
    C44     C    0.53433   0.55746   0.85748   1.000
    C45     C    0.54169   0.66053   0.85991   1.000
    C46     C    0.64271   0.67327   0.83920   1.000
    C47     C    0.73310   0.58294   0.81551   1.000
    C48     C    0.44138   0.75354   0.88301   1.000
    C49     C    0.66182   0.77843   0.84194   1.000
    C50     C    0.87432   0.20896   0.58130   1.000
    C51     C    0.00000   0.27537   0.56264   1.000
    C52     C    0.07930   0.99662   0.83550   1.000
    C53     C    0.17107   0.10169   0.82411   1.000
    C54     C    0.38464   0.82363   0.28665   1.000
    C55     C    0.48001   0.72601   0.31298   1.000
    C56     C    0.46773   0.62559   0.33479   1.000
    C57     C    0.55716   0.53527   0.35764   1.000
    C58     C    0.65981   0.54331   0.35991   1.000
    C59     C    0.67220   0.64449   0.33898   1.000
    C60     C    0.58192   0.73440   0.31515   1.000
    C61     C    0.75287   0.44356   0.38315   1.000
    C62     C    0.77691   0.66410   0.34187   1.000
    C63     C    0.20750   0.87454   0.08156   1.000
    C64     C    0.27404   0.00000   0.06240   1.000
    C65     C    0.99660   0.08089   0.33611   1.000
    C66     C    0.10183   0.17248   0.32404   1.000
    C67     C    0.17651   0.61488   0.21285   1.000
    C68     C    0.27463   0.51938   0.18674   1.000
    C69     C    0.37493   0.53197   0.16522   1.000
    C70     C    0.46570   0.44253   0.14251   1.000
    C71     C    0.45834   0.33945   0.14008   1.000
    C72     C    0.35733   0.32670   0.16080   1.000
    C73     C    0.26693   0.41703   0.18448   1.000
    C74     C    0.55866   0.24644   0.11698   1.000
    C75     C    0.33822   0.22154   0.15806   1.000
    C76     C    0.12570   0.79102   0.41871   1.000
    C77     C    0.99873   0.72458   0.43737   1.000
    C78     C    0.92075   0.00336   0.16451   1.000
    C79     C    0.82896   0.89830   0.17590   1.000
    N80     N    0.79558   0.08962   0.85385   1.000
    N81     N    0.75268   0.00000   0.86625   1.000
    N82     N    0.75008   0.07036   0.97274   1.000
    N83     N    0.91614   0.97373   0.70688   1.000
    N84     N    0.84877   0.91479   0.71427   1.000
    N85     N    0.99599   0.82672   0.64290   1.000
    N86     N    0.91021   0.20503   0.64592   1.000
    N87     N    0.99142   0.24789   0.63381   1.000
    N88     N    0.92933   0.25200   0.52720   1.000
    N89     N    0.02558   0.08381   0.79240   1.000
    N90     N    0.08461   0.15106   0.78543   1.000
    N91     N    0.17115   0.00000   0.85702   1.000
    N92     N    0.20445   0.91036   0.14615   1.000
    N93     N    0.24736   0.99159   0.13376   1.000
    N94     N    0.24997   0.92961   0.02727   1.000
    N95     N    0.08388   0.02625   0.29310   1.000
    N96     N    0.15124   0.08519   0.28573   1.000
    N97     N    0.00000   0.17326   0.35711   1.000
    N98     N    0.08983   0.79493   0.35409   1.000
    N99     N    0.00000   0.75205   0.36619   1.000
    N100    N    0.07070   0.74797   0.47274   1.000
    N101    N    0.97445   0.91616   0.20762   1.000
    N102    N    0.91542   0.84892   0.21450   1.000
    N103    N    0.82889   0.99596   0.14299   1.000
    O104    O    0.70953   0.18239   0.70377   1.000
    O105    O    0.59341   0.09352   0.74323   1.000
    O106    O    0.14987   0.55560   0.61890   1.000
    O107    O    0.26262   0.64616   0.59442   1.000
    O108    O    0.19919   0.31555   0.60016   1.000
    O109    O    0.16925   0.33387   0.72182   1.000
    O110    O    0.81747   0.29087   0.79616   1.000
    O111    O    0.90676   0.40698   0.75799   1.000
    O112    O    0.44131   0.85127   0.88069   1.000
    O113    O    0.35202   0.73740   0.90562   1.000
    O114    O    0.67999   0.80422   0.89999   1.000
    O115    O    0.66599   0.83070   0.77800   1.000
    O116    O    0.29049   0.81759   0.29624   1.000
    O117    O    0.40661   0.90646   0.25678   1.000
    O118    O    0.85015   0.44438   0.38104   1.000
    O119    O    0.73740   0.35382   0.40559   1.000
    O120    O    0.80083   0.68443   0.39985   1.000
    O121    O    0.83077   0.66611   0.27819   1.000
    O122    O    0.18257   0.70910   0.20385   1.000
    O123    O    0.09321   0.59302   0.24191   1.000
    O124    O    0.55874   0.14870   0.11933   1.000
    O125    O    0.64802   0.26259   0.09437   1.000
    O126    O    0.32004   0.19575   0.10002   1.000
    O127    O    0.33403   0.16928   0.22201   1.000
loop_
    _geom_bond_atom_site_label_1
    _geom_bond_atom_site_label_2
    _geom_bond_distance
    _geom_bond_site_symmetry_2
    _ccdc_geom_bond_type
    N94    C64       1.34292  1_565   S
    N94    C63       1.36310      .   S
    H18    C64       1.10170      .   S
    C64    N93       1.32905  1_545   S
    H17    C63       1.08401      .   S
    C63    N92       1.32737      .   S
    O125   C74       1.29130      .   S
    O126   C75       1.24031      .   S
    C74    O124      1.28535      .   S
    C74    C71       1.48242      .   S
    H22    C70       1.08889      .   S
    N93    N92       1.37745      .   S
    C71    C70       1.40668      .   S
    C71    C72       1.41106      .   S
    C70    C69       1.38873      .   S
    N103   C78       1.36296  1_565   S
    N103   C79       1.35969      .   S
    H26    C78       1.08472      .   S
    C75    C72       1.50977      .   S
    C75    O127      1.30513      .   S
    C72    C73       1.39826      .   S
    C78    N101      1.32886  1_545   S
    C69    H21       1.08864      .   S
    C69    C68       1.40327      .   S
    H27    C79       1.08526      .   S
    C79    N102      1.32761      .   S
    C73    C68       1.39860      .   S
    C73    H23       1.08908      .   S
    C68    C67       1.50138      .   S
    O122   C67       1.26701      .   S
    N101   N102      1.37446      .   S
    C67    O123      1.28374      .   S
    O117   C54       1.28347      .   S
    O121   C62       1.30521      .   S
    N96    N95       1.37454      .   S
    N96    C66       1.32870      .   S
    C54    O116      1.26715      .   S
    C54    C55       1.50095      .   S
    N95    C65       1.32920  1_455   S
    H16    C60       1.08905      .   S
    C55    C60       1.39860      .   S
    C55    C56       1.40320      .   S
    C60    C59       1.39797      .   S
    C66    H20       1.08527      .   S
    C66    N97       1.40710      .   S
    H14    C56       1.08861      .   S
    C56    C57       1.38864      .   S
    C65    H19       1.08461      .   S
    C65    N97       1.34040  1_655   S
    C59    C62       1.50970      .   S
    C59    C58       1.41088      .   S
    C62    O120      1.24014      .   S
    N98    N99       1.48255      .   S
    N98    C76       1.32748      .   S
    C57    C58       1.40651      .   S
    C57    H15       1.08889      .   S
    C58    C61       1.48165      .   S
    N99    C77       1.32534  1_455   S
    O118   C61       1.28584      .   S
    C61    O119      1.29076      .   S
    C76    H24       1.08405      .   S
    C76    N100      1.36340      .   S
    C77    H25       1.08522      .   S
    C77    N100      1.35984  1_655   S
    N88    C51       1.34613  1_655   S
    N88    C50       1.36419      .   S
    H11    C51       1.09972      .   S
    C51    N87       1.32846  1_455   S
    H10    C50       1.08405      .   S
    C50    N86       1.32753      .   S
    O107   C35       1.29076      .   S
    O108   C36       1.23947      .   S
    C35    O106      1.28596      .   S
    C35    C32       1.48163      .   S
    H1     C31       1.08890      .   S
    N87    N86       1.37733      .   S
    C32    C31       1.40652      .   S
    C32    C33       1.41080      .   S
    C31    C30       1.38863      .   S
    N85    C39       1.36326  1_655   S
    N85    C40       1.35928      .   S
    H5     C39       1.08475      .   S
    C36    C33       1.50972      .   S
    C36    O109      1.30584      .   S
    C33    C34       1.39814      .   S
    C39    N83       1.32890  1_455   S
    C30    H0        1.08861      .   S
    C30    C29       1.40322      .   S
    H6     C40       1.08526      .   S
    C40    N84       1.32867      .   S
    C34    C29       1.39862      .   S
    C34    H2        1.08882      .   S
    C29    C28       1.50055      .   S
    O104   C28       1.26712      .   S
    N83    N84       1.37454      .   S
    C28    O105      1.28384      .   S
    O111   C41       1.28374      .   S
    O115   C49       1.30499      .   S
    N90    N89       1.37439      .   S
    N90    C53       1.32853      .   S
    C41    O110      1.26700      .   S
    C41    C42       1.50138      .   S
    N89    C52       1.32879  1_545   S
    H9     C47       1.08908      .   S
    C42    C47       1.39858      .   S
    C42    C43       1.40328      .   S
    C47    C46       1.39829      .   S
    C53    H13       1.08526      .   S
    C53    N91       1.40741      .   S
    H7     C43       1.08861      .   S
    C43    C44       1.38872      .   S
    C52    H12       1.08472      .   S
    C52    N91       1.34024  1_565   S
    C46    C49       1.50976      .   S
    C46    C45       1.41105      .   S
    C49    O114      1.24046      .   S
    N80    N81       1.47944      .   S
    N80    C37       1.32667      .   S
    C44    C45       1.40668      .   S
    C44    H8        1.08892      .   S
    C45    C48       1.48242      .   S
    N81    C38       1.32504  1_545   S
    O112   C48       1.28537      .   S
    C48    O113      1.29131      .   S
    C37    H3        1.08421      .   S
    C37    N82       1.36366      .   S
    C38    H4        1.08544      .   S
    C38    N82       1.36006  1_565   S
