# CIF file generated by openbabel 2.4.90, see http://openbabel.sf.net
data_I
_chemical_name_common ''
_cell_length_a 13.218
_cell_length_b 13.2
_cell_length_c 18.517
_cell_angle_alpha 83.284
_cell_angle_beta 83.11
_cell_angle_gamma 67.658
_space_group_name_H-M_alt 'P 1'
_space_group_name_Hall 'P 1'
loop_
    _symmetry_equiv_pos_as_xyz
    x,y,z
loop_
    _atom_site_label
    _atom_site_type_symbol
    _atom_site_fract_x
    _atom_site_fract_y
    _atom_site_fract_z
    _atom_site_occupancy
    Zn0     Zn   0.09851   0.71620   0.57764   1.000
    Zn1     Zn   0.04356   0.29343   0.71867   1.000
    Zn2     Zn   0.28059   0.90170   0.92234   1.000
    Zn3     Zn   0.29338   0.04363   0.21850   1.000
    Zn4     Zn   0.90151   0.28378   0.42237   1.000
    Zn5     Zn   0.95647   0.70654   0.28133   1.000
    Zn6     Zn   0.71945   0.09828   0.07767   1.000
    Zn7     Zn   0.86202   0.13788   0.74986   1.000
    Zn8     Zn   0.13800   0.86210   0.25015   1.000
    Zn9     Zn   0.70664   0.95635   0.78148   1.000
