# CIF file generated by openbabel 2.4.90, see http://openbabel.sf.net
data_I
_chemical_name_common ''
_cell_length_a 13.218
_cell_length_b 13.2
_cell_length_c 18.517
_cell_angle_alpha 83.284
_cell_angle_beta 83.11
_cell_angle_gamma 67.658
_space_group_name_H-M_alt 'P 1'
_space_group_name_Hall 'P 1'
loop_
    _symmetry_equiv_pos_as_xyz
    x,y,z
loop_
    _atom_site_label
    _atom_site_type_symbol
    _atom_site_fract_x
    _atom_site_fract_y
    _atom_site_fract_z
    _atom_site_occupancy
    N0      N    0.11682   0.05672   0.82478   1.000
    N1      N    0.36230   0.40050   0.16359   1.000
    N2      N    0.88322   0.94269   0.17522   1.000
    N3      N    0.59874   0.63900   0.33630   1.000
    N4      N    0.76087   0.05929   0.91949   1.000
    N5      N    0.40128   0.36099   0.66369   1.000
    N6      N    0.63773   0.59947   0.83640   1.000
    N7      N    0.23917   0.93927   0.08050   1.000
    N8      N    0.94265   0.88177   0.67493   1.000
    N9      N    0.93913   0.24042   0.58046   1.000
    N10     N    0.05948   0.75955   0.41954   1.000
    N11     N    0.05679   0.11821   0.32507   1.000
    Zr12    Zr   0.13800   0.86210   0.25015   1.000
    O13     O    0.11235   0.82807   0.30549   1.000
    O14     O    0.11093   0.94665   0.27425   1.000
    O15     O    0.05386   0.88901   0.22610   1.000
    O16     O    0.19965   0.72758   0.22272   1.000
    O17     O    0.27225   0.80076   0.27745   1.000
    O18     O    0.17160   0.88743   0.19474   1.000
    Zr19    Zr   0.70664   0.95635   0.78148   1.000
    O20     O    0.78341   0.93251   0.74644   1.000
    O21     O    0.61614   0.07465   0.74725   1.000
    O22     O    0.68433   0.85142   0.79478   1.000
    O23     O    0.72595   0.98754   0.82658   1.000
    Zr24    Zr   0.86202   0.13788   0.74986   1.000
    O25     O    0.88894   0.05333   0.72575   1.000
    O26     O    0.80038   0.27240   0.77728   1.000
    O27     O    0.88732   0.17191   0.69452   1.000
    O28     O    0.82843   0.11220   0.80527   1.000
    O29     O    0.94617   0.11083   0.77391   1.000
    O30     O    0.72777   0.19922   0.72256   1.000
    Zr31    Zr   0.71945   0.09828   0.07767   1.000
    O32     O    0.77407   0.04659   0.11022   1.000
    O33     O    0.73364   0.08504   0.02501   1.000
    Zr34    Zr   0.04356   0.29343   0.71867   1.000
    O35     O    0.01093   0.27449   0.67351   1.000
    O36     O    0.92500   0.38414   0.75302   1.000
    O37     O    0.06700   0.21646   0.75354   1.000
    O38     O    0.14870   0.31538   0.70532   1.000
    Zr39    Zr   0.95647   0.70654   0.28133   1.000
    O40     O    0.93303   0.78338   0.24645   1.000
    O41     O    0.85133   0.68460   0.29468   1.000
    O42     O    0.98767   0.72548   0.32649   1.000
    O43     O    0.07502   0.61584   0.24697   1.000
    Zr44    Zr   0.90151   0.28378   0.42237   1.000
    O45     O    0.95264   0.22858   0.38989   1.000
    O46     O    0.91439   0.26897   0.47500   1.000
    Zr47    Zr   0.28059   0.90170   0.92234   1.000
    O48     O    0.22597   0.95274   0.88979   1.000
    O49     O    0.26641   0.91458   0.97500   1.000
    Zr50    Zr   0.09851   0.71620   0.57764   1.000
    O51     O    0.04673   0.77141   0.61012   1.000
    O52     O    0.08528   0.73101   0.52500   1.000
    Zr53    Zr   0.29338   0.04363   0.21850   1.000
    O54     O    0.21647   0.06747   0.25355   1.000
    O55     O    0.31569   0.14856   0.20521   1.000
    O56     O    0.38388   0.92533   0.25274   1.000
    O57     O    0.27408   0.01104   0.17341   1.000
    O58     O    0.81235   0.38700   0.39722   1.000
    O59     O    0.61566   0.18726   0.10280   1.000
    O60     O    0.38438   0.81272   0.89721   1.000
    O61     O    0.18767   0.61298   0.60278   1.000
loop_
    _geom_bond_atom_site_label_1
    _geom_bond_atom_site_label_2
    _geom_bond_distance
    _geom_bond_site_symmetry_2
    _ccdc_geom_bond_type
    Zr12   O13       1.13651      .   S
    N10    O13       2.33369      .   S
    Zr12   O14       1.16068      .   S
    N11    O14       2.37294  1_545   S
    Zr12   O15       1.15882      .   S
    N2     O15       2.36982  1_655   S
    Zr12   O16       1.75690      .   S
    N1     O16       4.23617      .   S
    Zr12   O17       1.75699      .   S
    N3     O17       4.23673      .   S
    Zr12   O18       1.13361      .   S
    N7     O18       2.32663      .   S
    Zr19   O20       1.09395      .   S
    N8     O20       2.25821      .   S
    Zr19   O21       1.67375  1_565   S
    N5     O21       4.03374      .   S
    Zr19   O22       1.50968      .   S
    N6     O22       3.58860      .   S
    Zr19   O23       1.06937      .   S
    N4     O23       2.23024  1_545   S
    Zr24   O25       1.16094      .   S
    N8     O25       2.37363  1_565   S
    Zr24   O26       1.75685      .   S
    N6     O26       4.23607      .   S
    Zr24   O27       1.13495      .   S
    N9     O27       2.32908      .   S
    Zr24   O28       1.13510      .   S
    N4     O28       2.33113      .   S
    Zr24   O29       1.15868      .   S
    N0     O29       2.36924  1_455   S
    Zr24   O30       1.75703      .   S
    N5     O30       4.23684      .   S
    Zr31   O32       0.99186      .   S
    N2     O32       1.98418  1_565   S
    Zr31   O33       0.99380      .   S
    N4     O33       1.98906  1_556   S
    Zr34   O35       1.07947      .   S
    N9     O35       2.22938  1_655   S
    Zr34   O36       1.67520  1_455   S
    N6     O36       4.03685      .   S
    Zr34   O37       1.09571      .   S
    N0     O37       2.26318      .   S
    Zr34   O38       1.51106      .   S
    N5     O38       3.59234      .   S
    Zr39   O40       1.09441      .   S
    N2     O40       2.25888      .   S
    Zr39   O41       1.51107      .   S
    N3     O41       3.59234      .   S
    Zr39   O42       1.06855      .   S
    N10    O42       2.22944  1_455   S
    Zr39   O43       1.67523  1_655   S
    N1     O43       4.03690      .   S
    Zr44   O45       0.99005      .   S
    N11    O45       1.98645  1_455   S
    Zr44   O46       0.99334      .   S
    N9     O46       1.98741      .   S
    Zr47   O48       0.98904      .   S
    N0     O48       1.98463  1_545   S
    Zr47   O49       0.99270      .   S
    N7     O49       1.98582  1_554   S
    Zr50   O51       0.99286      .   S
    N8     O51       1.98599  1_655   S
    Zr50   O52       0.99456      .   S
    N10    O52       1.99040      .   S
    Zr53   O54       1.09544      .   S
    N11    O54       2.26257      .   S
    Zr53   O55       1.50968      .   S
    N1     O55       3.58861      .   S
    Zr53   O56       1.67379  1_545   S
    N3     O56       4.03377      .   S
    Zr53   O57       1.07985      .   S
    N7     O57       2.23021  1_565   S
    Zr44   O58       1.49150      .   S
    N3     O58       3.61319      .   S
    Zr31   O59       1.49259      .   S
    N1     O59       3.61596      .   S
    Zr47   O60       1.49261      .   S
    N6     O60       3.61599      .   S
    N5     O61       3.61315      .   S
    Zr50   O61       1.49146      .   S
