# CIF file generated by openbabel 2.4.90, see http://openbabel.sf.net
data_I
_chemical_name_common ''
_cell_length_a 13.218
_cell_length_b 13.2
_cell_length_c 18.517
_cell_angle_alpha 83.284
_cell_angle_beta 83.11
_cell_angle_gamma 67.658
_space_group_name_H-M_alt 'P 1'
_space_group_name_Hall 'P 1'
loop_
    _symmetry_equiv_pos_as_xyz
    x,y,z
loop_
    _atom_site_label
    _atom_site_type_symbol
    _atom_site_fract_x
    _atom_site_fract_y
    _atom_site_fract_z
    _atom_site_occupancy
    Zr0     Zr   0.70664   0.95635   0.78148   1.000
    Zr1     Zr   0.09851   0.71620   0.57764   1.000
    Zr2     Zr   0.04356   0.29343   0.71867   1.000
    Zr3     Zr   0.28059   0.90170   0.92234   1.000
    Zr4     Zr   0.29338   0.04363   0.21850   1.000
    Zr5     Zr   0.90151   0.28378   0.42237   1.000
    Zr6     Zr   0.95647   0.70654   0.28133   1.000
    Zr7     Zr   0.71945   0.09828   0.07767   1.000
    Zr8     Zr   0.86202   0.13788   0.74986   1.000
    Zr9     Zr   0.13800   0.86210   0.25015   1.000
    N10     N    0.11682   0.05672   0.82478   1.000
    O11     O    0.17135   0.00378   0.85723   1.000
    O12     O    0.03031   0.08378   0.79796   1.000
    O13     O    0.09045   0.13948   0.78842   1.000
    N14     N    0.36230   0.40050   0.16359   1.000
    O15     O    0.26129   0.59305   0.19529   1.000
    O16     O    0.19357   0.52514   0.21260   1.000
    O17     O    0.50070   0.26200   0.13104   1.000
    O18     O    0.52302   0.29047   0.12480   1.000
    O19     O    0.33801   0.25348   0.19192   1.000
    N20     N    0.88322   0.94269   0.17522   1.000
    O21     O    0.90958   0.86021   0.21157   1.000
    O22     O    0.82870   0.99491   0.14277   1.000
    O23     O    0.96972   0.91591   0.20205   1.000
    N24     N    0.59874   0.63900   0.33630   1.000
    O25     O    0.74618   0.66266   0.30803   1.000
    O26     O    0.73729   0.50154   0.36900   1.000
    O27     O    0.40649   0.73942   0.30475   1.000
    O28     O    0.47437   0.80702   0.28697   1.000
    O29     O    0.70910   0.47890   0.37514   1.000
    N30     N    0.76087   0.05929   0.91949   1.000
    O31     O    0.79483   0.08652   0.86067   1.000
    O32     O    0.74526   0.01873   0.87168   1.000
    O33     O    0.74782   0.07180   0.97235   1.000
    N34     N    0.40128   0.36099   0.66369   1.000
    O35     O    0.26273   0.49844   0.63098   1.000
    O36     O    0.29092   0.52108   0.62486   1.000
    O37     O    0.25384   0.33732   0.69197   1.000
    O38     O    0.59353   0.26056   0.69525   1.000
    O39     O    0.52565   0.19296   0.71302   1.000
    N40     N    0.63773   0.59947   0.83640   1.000
    O41     O    0.80644   0.47484   0.78737   1.000
    O42     O    0.49934   0.73798   0.86896   1.000
    O43     O    0.47702   0.70951   0.87519   1.000
    O44     O    0.73874   0.40692   0.80471   1.000
    O45     O    0.66202   0.74650   0.80807   1.000
    N46     N    0.23917   0.93927   0.08050   1.000
    O47     O    0.20520   0.91275   0.13933   1.000
    O48     O    0.25477   0.97844   0.12832   1.000
    O49     O    0.25222   0.92746   0.02765   1.000
    N50     N    0.94265   0.88177   0.67493   1.000
    O51     O    0.99495   0.82661   0.64260   1.000
    O52     O    0.91587   0.96879   0.70165   1.000
    O53     O    0.86018   0.90867   0.71140   1.000
    N54     N    0.93913   0.24042   0.58046   1.000
    O55     O    0.91262   0.20593   0.63917   1.000
    O56     O    0.97831   0.25554   0.62835   1.000
    O57     O    0.92727   0.25415   0.52762   1.000
    N58     N    0.05948   0.75955   0.41954   1.000
    O59     O    0.08670   0.79403   0.36083   1.000
    O60     O    0.01886   0.74442   0.37165   1.000
    O61     O    0.07204   0.74582   0.47237   1.000
    N62     N    0.05679   0.11821   0.32507   1.000
    O63     O    0.08387   0.03119   0.29835   1.000
    O64     O    0.13955   0.09131   0.28859   1.000
    O65     O    0.00377   0.17337   0.35740   1.000
loop_
    _geom_bond_atom_site_label_1
    _geom_bond_atom_site_label_2
    _geom_bond_distance
    _geom_bond_site_symmetry_2
    _ccdc_geom_bond_type
    N10    O11       0.99575      .   S
    Zr3    O11       1.97807  1_565   S
    N10    O12       1.21083      .   S
    Zr8    O12       2.31735  1_655   S
    N10    O13       1.16757      .   S
    Zr2    O13       2.19142      .   S
    N14    O15       2.48361      .   S
    Zr9    O15       3.51381      .   S
    N14    O16       2.36192      .   S
    Zr6    O16       3.35046  1_655   S
    N14    O17       2.12195      .   S
    Zr7    O17       3.01178      .   S
    N14    O18       2.16110      .   S
    Zr7    O18       2.98420      .   S
    N14    O19       2.08327      .   S
    Zr4    O19       3.01937      .   S
    N20    O21       1.16457      .   S
    Zr6    O21       2.18882      .   S
    N20    O22       0.99234      .   S
    Zr7    O22       1.98373  1_545   S
    N20    O23       1.21128      .   S
    Zr9    O23       2.31765  1_455   S
    N24    O25       2.08552      .   S
    Zr6    O25       3.02214      .   S
    N24    O26       2.12020      .   S
    Zr5    O26       3.00952      .   S
    N24    O27       2.48398      .   S
    Zr9    O27       3.51398      .   S
    N24    O28       2.36021      .   S
    Zr4    O28       3.34758  1_545   S
    N24    O29       2.15952      .   S
    Zr5    O29       2.98215      .   S
    N30    O31       1.19612      .   S
    Zr8    O31       2.27020      .   S
    N30    O32       1.16261      .   S
    Zr0    O32       2.13874  1_565   S
    N30    O33       0.99532      .   S
    Zr7    O33       1.98760  1_554   S
    N34    O35       2.12025      .   S
    Zr1    O35       3.00937      .   S
    N34    O36       2.15948      .   S
    Zr1    O36       2.98211      .   S
    N34    O37       2.08553      .   S
    Zr2    O37       3.02212      .   S
    N34    O38       2.48404      .   S
    Zr8    O38       3.51407      .   S
    N34    O39       2.36023      .   S
    Zr0    O39       3.34750  1_565   S
    N40    O41       2.36190      .   S
    Zr2    O41       3.35040  1_455   S
    N40    O42       2.12196      .   S
    Zr3    O42       3.01182      .   S
    N40    O43       2.16110      .   S
    Zr3    O43       2.98425      .   S
    N40    O44       2.48357      .   S
    Zr8    O44       3.51370      .   S
    N40    O45       2.08326      .   S
    Zr0    O45       3.01936      .   S
    N46    O47       1.19313      .   S
    Zr9    O47       2.26721      .   S
    N46    O48       1.15138      .   S
    Zr4    O48       2.15970  1_545   S
    N46    O49       0.99319      .   S
    Zr3    O49       1.98540  1_556   S
    N50    O51       0.99314      .   S
    Zr1    O51       1.98572  1_455   S
    N50    O52       1.21293      .   S
    Zr8    O52       2.32189  1_545   S
    N50    O53       1.16437      .   S
    Zr0    O53       2.18790      .   S
    N54    O55       1.19422      .   S
    Zr8    O55       2.26990      .   S
    N54    O56       1.15095      .   S
    Zr2    O56       2.15893  1_455   S
    N54    O57       0.99413      .   S
    Zr5    O57       1.98669      .   S
    N58    O59       1.19726      .   S
    Zr9    O59       2.27301      .   S
    N58    O60       1.16266      .   S
    Zr6    O60       2.13711  1_655   S
    N58    O61       0.99589      .   S
    Zr1    O61       1.98913      .   S
    N62    O63       1.21249      .   S
    Zr9    O63       2.32136  1_565   S
    N62    O64       1.16725      .   S
    Zr4    O64       2.19087      .   S
    N62    O65       0.99656      .   S
    Zr5    O65       1.98011  1_655   S
