# CIF file generated by openbabel 2.4.90, see http://openbabel.sf.net
data_I
_chemical_name_common ''
_cell_length_a 13.218
_cell_length_b 13.2
_cell_length_c 18.517
_cell_angle_alpha 83.284
_cell_angle_beta 83.11
_cell_angle_gamma 67.658
_space_group_name_H-M_alt 'P 1'
_space_group_name_Hall 'P 1'
loop_
    _symmetry_equiv_pos_as_xyz
    x,y,z
loop_
    _atom_site_label
    _atom_site_type_symbol
    _atom_site_fract_x
    _atom_site_fract_y
    _atom_site_fract_z
    _atom_site_occupancy
    C0      C    0.70664   0.95635   0.78148   1.000
    C1      C    0.09851   0.71620   0.57764   1.000
    C2      C    0.04356   0.29343   0.71867   1.000
    C3      C    0.28059   0.90170   0.92234   1.000
    C4      C    0.29338   0.04363   0.21850   1.000
    C5      C    0.90151   0.28378   0.42237   1.000
    C6      C    0.95647   0.70654   0.28133   1.000
    C7      C    0.71945   0.09828   0.07767   1.000
    C8      C    0.86202   0.13788   0.74986   1.000
    C9      C    0.13800   0.86210   0.25015   1.000
    C10     C    0.61177   0.38040   0.66730   1.000
    C11     C    0.45027   0.54374   0.62609   1.000
    C12     C    0.41012   0.18699   0.70190   1.000
    C13     C    0.81902   0.19160   0.92575   1.000
    C14     C    0.69020   0.93956   0.96188   1.000
    C15     C    0.07207   0.94507   0.64796   1.000
    C16     C    0.86398   0.76550   0.67263   1.000
    C17     C    0.61954   0.38824   0.83257   1.000
    C18     C    0.45544   0.54971   0.87354   1.000
    C19     C    0.81153   0.59128   0.79852   1.000
    C20     C    0.80820   0.18264   0.57379   1.000
    C21     C    0.06041   0.31102   0.53853   1.000
    C22     C    0.05301   0.92809   0.85119   1.000
    C23     C    0.23302   0.13574   0.82782   1.000
    C24     C    0.38825   0.61959   0.33271   1.000
    C25     C    0.54975   0.45625   0.37392   1.000
    C26     C    0.58990   0.81299   0.29803   1.000
    C27     C    0.18101   0.80838   0.07425   1.000
    C28     C    0.30985   0.06040   0.03813   1.000
    C29     C    0.92796   0.05491   0.35200   1.000
    C30     C    0.13603   0.23449   0.32737   1.000
    C31     C    0.38048   0.61174   0.16742   1.000
    C32     C    0.54458   0.45028   0.12646   1.000
    C33     C    0.18851   0.40869   0.20147   1.000
    C34     C    0.19181   0.81735   0.42622   1.000
    C35     C    0.93963   0.68893   0.46147   1.000
    C36     C    0.94705   0.07188   0.14882   1.000
    C37     C    0.76701   0.86425   0.17218   1.000
    C38     C    0.61538   0.17636   0.71330   1.000
    C39     C    0.52001   0.27398   0.68704   1.000
    C40     C    0.53229   0.37439   0.66522   1.000
    C41     C    0.44286   0.46471   0.64237   1.000
    C42     C    0.34021   0.45667   0.64010   1.000
    C43     C    0.32782   0.35550   0.66100   1.000
    C44     C    0.41810   0.26558   0.68486   1.000
    C45     C    0.24715   0.55643   0.61686   1.000
    C46     C    0.22311   0.33588   0.65810   1.000
    C47     C    0.79253   0.12544   0.91840   1.000
    C48     C    0.72601   0.99847   0.93756   1.000
    C49     C    0.00342   0.91909   0.66390   1.000
    C50     C    0.89819   0.82750   0.67596   1.000
    C51     C    0.82351   0.38510   0.78712   1.000
    C52     C    0.72539   0.48060   0.81325   1.000
    C53     C    0.62510   0.46800   0.83477   1.000
    C54     C    0.53433   0.55746   0.85748   1.000
    C55     C    0.54169   0.66053   0.85991   1.000
    C56     C    0.64271   0.67327   0.83920   1.000
    C57     C    0.73310   0.58294   0.81551   1.000
    C58     C    0.44138   0.75354   0.88301   1.000
    C59     C    0.66182   0.77843   0.84194   1.000
    C60     C    0.87432   0.20896   0.58130   1.000
    C61     C    0.00000   0.27537   0.56264   1.000
    C62     C    0.07930   0.99662   0.83550   1.000
    C63     C    0.17107   0.10169   0.82411   1.000
    C64     C    0.38464   0.82363   0.28665   1.000
    C65     C    0.48001   0.72601   0.31298   1.000
    C66     C    0.46773   0.62559   0.33479   1.000
    C67     C    0.55716   0.53527   0.35764   1.000
    C68     C    0.65981   0.54331   0.35991   1.000
    C69     C    0.67220   0.64449   0.33898   1.000
    C70     C    0.58192   0.73440   0.31515   1.000
    C71     C    0.75287   0.44356   0.38315   1.000
    C72     C    0.77691   0.66410   0.34187   1.000
    C73     C    0.20750   0.87454   0.08156   1.000
    C74     C    0.27404   0.00000   0.06240   1.000
    C75     C    0.99660   0.08089   0.33611   1.000
    C76     C    0.10183   0.17248   0.32404   1.000
    C77     C    0.17651   0.61488   0.21285   1.000
    C78     C    0.27463   0.51938   0.18674   1.000
    C79     C    0.37493   0.53197   0.16522   1.000
    C80     C    0.46570   0.44253   0.14251   1.000
    C81     C    0.45834   0.33945   0.14008   1.000
    C82     C    0.35733   0.32670   0.16080   1.000
    C83     C    0.26693   0.41703   0.18448   1.000
    C84     C    0.55866   0.24644   0.11698   1.000
    C85     C    0.33822   0.22154   0.15806   1.000
    C86     C    0.12570   0.79102   0.41871   1.000
    C87     C    0.99873   0.72458   0.43737   1.000
    C88     C    0.92075   0.00336   0.16451   1.000
    C89     C    0.82896   0.89830   0.17590   1.000
    C90     C    0.79558   0.08962   0.85385   1.000
    C91     C    0.75268   0.00000   0.86625   1.000
    C92     C    0.75008   0.07036   0.97274   1.000
    C93     C    0.91614   0.97373   0.70688   1.000
    C94     C    0.84877   0.91479   0.71427   1.000
    C95     C    0.99599   0.82672   0.64290   1.000
    C96     C    0.91021   0.20503   0.64592   1.000
    C97     C    0.99142   0.24789   0.63381   1.000
    C98     C    0.92933   0.25200   0.52720   1.000
    C99     C    0.02558   0.08381   0.79240   1.000
    C100    C    0.08461   0.15106   0.78543   1.000
    C101    C    0.17115   0.00000   0.85702   1.000
    C102    C    0.20445   0.91036   0.14615   1.000
    C103    C    0.24736   0.99159   0.13376   1.000
    C104    C    0.24997   0.92961   0.02727   1.000
    C105    C    0.08388   0.02625   0.29310   1.000
    C106    C    0.15124   0.08519   0.28573   1.000
    C107    C    0.00000   0.17326   0.35711   1.000
    C108    C    0.08983   0.79493   0.35409   1.000
    C109    C    0.00000   0.75205   0.36619   1.000
    C110    C    0.07070   0.74797   0.47274   1.000
    C111    C    0.97445   0.91616   0.20762   1.000
    C112    C    0.91542   0.84892   0.21450   1.000
    C113    C    0.82889   0.99596   0.14299   1.000
    C114    C    0.70953   0.18239   0.70377   1.000
    C115    C    0.59341   0.09352   0.74323   1.000
    C116    C    0.14987   0.55560   0.61890   1.000
    C117    C    0.26262   0.64616   0.59442   1.000
    C118    C    0.19919   0.31555   0.60016   1.000
    C119    C    0.16925   0.33387   0.72182   1.000
    C120    C    0.81747   0.29087   0.79616   1.000
    C121    C    0.90676   0.40698   0.75799   1.000
    C122    C    0.44131   0.85127   0.88069   1.000
    C123    C    0.35202   0.73740   0.90562   1.000
    C124    C    0.67999   0.80422   0.89999   1.000
    C125    C    0.66599   0.83070   0.77800   1.000
    C126    C    0.29049   0.81759   0.29624   1.000
    C127    C    0.40661   0.90646   0.25678   1.000
    C128    C    0.85015   0.44438   0.38104   1.000
    C129    C    0.73740   0.35382   0.40559   1.000
    C130    C    0.80083   0.68443   0.39985   1.000
    C131    C    0.83077   0.66611   0.27819   1.000
    C132    C    0.18257   0.70910   0.20385   1.000
    C133    C    0.09321   0.59302   0.24191   1.000
    C134    C    0.55874   0.14870   0.11933   1.000
    C135    C    0.64802   0.26259   0.09437   1.000
    C136    C    0.32004   0.19575   0.10002   1.000
    C137    C    0.33403   0.16928   0.22201   1.000
    O138    O    0.26200   0.96481   0.04483   1.000
    O139    O    0.22873   0.90207   0.05441   1.000
    O140    O    0.26528   0.91566   0.97481   1.000
    O141    O    0.29194   0.03020   0.05026   1.000
    O142    O    0.26070   0.99579   0.09808   1.000
    O143    O    0.19426   0.84146   0.07790   1.000
    O144    O    0.68373   0.18043   0.08602   1.000
    O145    O    0.63910   0.12349   0.09850   1.000
    O146    O    0.77417   0.04712   0.11033   1.000
    O147    O    0.73476   0.08432   0.02521   1.000
    O148    O    0.20598   0.89245   0.11385   1.000
    O149    O    0.60334   0.25451   0.10567   1.000
    O150    O    0.32913   0.20864   0.12904   1.000
    O151    O    0.55870   0.19757   0.11815   1.000
    O152    O    0.50850   0.29294   0.12853   1.000
    O153    O    0.50514   0.44640   0.13448   1.000
    O154    O    0.22590   0.95097   0.13995   1.000
    O155    O    0.27037   0.01761   0.17613   1.000
    O156    O    0.46202   0.39099   0.14129   1.000
    O157    O    0.40784   0.33307   0.15044   1.000
    O158    O    0.42031   0.48725   0.15387   1.000
    O159    O    0.87482   0.99966   0.15375   1.000
    O160    O    0.82892   0.94713   0.15944   1.000
    O161    O    0.17123   0.88623   0.19815   1.000
    O162    O    0.93390   0.03762   0.15666   1.000
    O163    O    0.34778   0.27412   0.15943   1.000
    O164    O    0.33613   0.19541   0.19003   1.000
    O165    O    0.31213   0.37187   0.17264   1.000
    O166    O    0.94760   0.95976   0.18606   1.000
    O167    O    0.37770   0.57186   0.16632   1.000
    O168    O    0.32478   0.52568   0.17598   1.000
    O169    O    0.79798   0.88128   0.17404   1.000
    O170    O    0.87219   0.87361   0.19520   1.000
    O171    O    0.27078   0.46820   0.18561   1.000
    O172    O    0.22772   0.41286   0.19298   1.000
    O173    O    0.22557   0.56713   0.19979   1.000
    O174    O    0.17954   0.66199   0.20835   1.000
    O175    O    0.16028   0.78560   0.22700   1.000
    O176    O    0.94494   0.88254   0.21106   1.000
    O177    O    0.05623   0.88913   0.22888   1.000
    O178    O    0.13486   0.60395   0.22738   1.000
    O179    O    0.93595   0.77773   0.24791   1.000
    O180    O    0.31371   0.10646   0.22025   1.000
    O181    O    0.34999   0.97505   0.23764   1.000
    O182    O    0.22231   0.06441   0.25211   1.000
    O183    O    0.02484   0.64978   0.26162   1.000
    O184    O    0.11094   0.94418   0.27162   1.000
    O185    O    0.21424   0.83985   0.27319   1.000
    O186    O    0.11392   0.82852   0.30212   1.000
    O187    O    0.39562   0.86504   0.27171   1.000
    O188    O    0.89362   0.68632   0.27976   1.000
    O189    O    0.80384   0.66511   0.31003   1.000
    O190    O    0.97824   0.72930   0.32376   1.000
    O191    O    0.11756   0.05572   0.28941   1.000
    O192    O    0.12654   0.12884   0.30488   1.000
    O193    O    0.33756   0.82061   0.29145   1.000
    O194    O    0.43232   0.77482   0.29981   1.000
    O195    O    0.04024   0.05357   0.31461   1.000
    O196    O    0.58591   0.77370   0.30659   1.000
    O197    O    0.53097   0.73020   0.31406   1.000
    O198    O    0.47387   0.67580   0.32388   1.000
    O199    O    0.62706   0.68945   0.32706   1.000
    O200    O    0.11893   0.20349   0.32570   1.000
    O201    O    0.05091   0.17287   0.34058   1.000
    O202    O    0.42799   0.62259   0.33375   1.000
    O203    O    0.51244   0.58043   0.34621   1.000
    O204    O    0.96228   0.06790   0.34405   1.000
    O205    O    0.99830   0.12708   0.34661   1.000
    O206    O    0.72456   0.65429   0.34042   1.000
    O207    O    0.66600   0.59390   0.34944   1.000
    O208    O    0.78887   0.67427   0.37086   1.000
    O209    O    0.04492   0.77349   0.36014   1.000
    O210    O    0.10776   0.79297   0.38640   1.000
    O211    O    0.95075   0.22852   0.38974   1.000
    O212    O    0.60848   0.53929   0.35877   1.000
    O213    O    0.55345   0.49576   0.36578   1.000
    O214    O    0.70634   0.49343   0.37153   1.000
    O215    O    0.99937   0.73832   0.40178   1.000
    O216    O    0.80151   0.44397   0.38209   1.000
    O217    O    0.87583   0.36408   0.40170   1.000
    O218    O    0.74514   0.39869   0.39437   1.000
    O219    O    0.81945   0.31880   0.41398   1.000
    O220    O    0.15875   0.80418   0.42246   1.000
    O221    O    0.09820   0.76949   0.44573   1.000
    O222    O    0.91542   0.26789   0.47479   1.000
    O223    O    0.96918   0.70676   0.44942   1.000
    O224    O    0.03471   0.73628   0.45505   1.000
    O225    O    0.08460   0.73208   0.52519   1.000
    O226    O    0.96466   0.26369   0.54492   1.000
    O227    O    0.90182   0.23048   0.55425   1.000
    O228    O    0.03021   0.29320   0.55058   1.000
    O229    O    0.99571   0.26163   0.59822   1.000
    O230    O    0.84126   0.19580   0.57754   1.000
    O231    O    0.18056   0.68118   0.58603   1.000
    O232    O    0.12419   0.63590   0.59827   1.000
    O233    O    0.04725   0.77146   0.61027   1.000
    O234    O    0.89226   0.20699   0.61361   1.000
    O235    O    0.25488   0.60129   0.60564   1.000
    O236    O    0.21115   0.32572   0.62913   1.000
    O237    O    0.19851   0.55601   0.61788   1.000
    O238    O    0.29368   0.50655   0.62848   1.000
    O239    O    0.44656   0.50423   0.63423   1.000
    O240    O    0.95081   0.22646   0.63986   1.000
    O241    O    0.01749   0.27066   0.67624   1.000
    O242    O    0.39153   0.46069   0.64123   1.000
    O243    O    0.33402   0.40608   0.65055   1.000
    O244    O    0.48758   0.41955   0.65380   1.000
    O245    O    0.99971   0.87290   0.65340   1.000
    O246    O    0.94709   0.82711   0.65943   1.000
    O247    O    0.88611   0.17145   0.69789   1.000
    O248    O    0.03774   0.93208   0.65593   1.000
    O249    O    0.27546   0.34569   0.65955   1.000
    O250    O    0.19618   0.33488   0.68996   1.000
    O251    O    0.37296   0.31054   0.67293   1.000
    O252    O    0.95978   0.94641   0.68539   1.000
    O253    O    0.57203   0.37740   0.66626   1.000
    O254    O    0.52615   0.32419   0.67613   1.000
    O255    O    0.88109   0.79650   0.67429   1.000
    O256    O    0.87348   0.87115   0.69512   1.000
    O257    O    0.46905   0.26978   0.68595   1.000
    O258    O    0.41411   0.22629   0.69338   1.000
    O259    O    0.56770   0.22517   0.70017   1.000
    O260    O    0.66246   0.17938   0.70854   1.000
    O261    O    0.78578   0.16014   0.72681   1.000
    O262    O    0.88246   0.94426   0.71057   1.000
    O263    O    0.88908   0.05580   0.72837   1.000
    O264    O    0.60440   0.13494   0.72826   1.000
    O265    O    0.77771   0.93557   0.74787   1.000
    O266    O    0.10640   0.31365   0.72024   1.000
    O267    O    0.97516   0.35021   0.73833   1.000
    O268    O    0.06408   0.22225   0.75205   1.000
    O269    O    0.65003   0.02493   0.76235   1.000
    O270    O    0.94380   0.11085   0.77113   1.000
    O271    O    0.83975   0.21437   0.77301   1.000
    O272    O    0.82880   0.11375   0.80185   1.000
    O273    O    0.86514   0.39604   0.77255   1.000
    O274    O    0.68632   0.89352   0.77974   1.000
    O275    O    0.66391   0.80456   0.80997   1.000
    O276    O    0.72966   0.97817   0.82386   1.000
    O277    O    0.05509   0.11744   0.78891   1.000
    O278    O    0.12784   0.12637   0.80477   1.000
    O279    O    0.82049   0.33799   0.79164   1.000
    O280    O    0.77445   0.43285   0.80019   1.000
    O281    O    0.05244   0.04022   0.81395   1.000
    O282    O    0.77232   0.58711   0.80701   1.000
    O283    O    0.72925   0.53177   0.81438   1.000
    O284    O    0.67525   0.47430   0.82401   1.000
    O285    O    0.68791   0.62810   0.82735   1.000
    O286    O    0.20205   0.11872   0.82596   1.000
    O287    O    0.17111   0.05084   0.84057   1.000
    O288    O    0.62232   0.42812   0.83367   1.000
    O289    O    0.57972   0.51273   0.84612   1.000
    O290    O    0.06615   0.96236   0.84335   1.000
    O291    O    0.12523   0.99831   0.84626   1.000
    O292    O    0.65227   0.72585   0.84057   1.000
    O293    O    0.59220   0.66690   0.84955   1.000
    O294    O    0.67090   0.79133   0.87096   1.000
    O295    O    0.77413   0.04481   0.86005   1.000
    O296    O    0.79405   0.10753   0.88612   1.000
    O297    O    0.22587   0.95085   0.88968   1.000
    O298    O    0.53801   0.60899   0.85869   1.000
    O299    O    0.49489   0.55358   0.86551   1.000
    O300    O    0.49153   0.70704   0.87146   1.000
    O301    O    0.73934   0.99924   0.90190   1.000
    O302    O    0.44134   0.80240   0.88185   1.000
    O303    O    0.36095   0.87649   0.90151   1.000
    O304    O    0.39670   0.74547   0.89431   1.000
    O305    O    0.31631   0.81955   0.91398   1.000
    O306    O    0.80578   0.15852   0.92207   1.000
    O307    O    0.77130   0.09790   0.94557   1.000
    O308    O    0.70811   0.96902   0.94972   1.000
    O309    O    0.73804   0.03441   0.95515   1.000
loop_
    _geom_bond_atom_site_label_1
    _geom_bond_atom_site_label_2
    _geom_bond_distance
    _geom_bond_site_symmetry_2
    _ccdc_geom_bond_type
    C104   O138      0.67146      .   S
    C74    O138      0.67146  1_545   S
    C104   O139      0.68155      .   S
    C73    O139      0.68155      .   S
    C104   O140      0.99249  1_554   S
    C3     O140      0.99249      .   S
    C28    O141      0.55085      .   S
    C74    O141      0.55085      .   S
    C74    O142      0.66452  1_545   S
    C103   O142      0.66452      .   S
    C27    O143      0.54200      .   S
    C73    O143      0.54200      .   S
    C7     O144      1.02725      .   S
    C135   O144      1.02725      .   S
    C7     O145      1.02500      .   S
    C134   O145      1.02500      .   S
    C7     O146      0.99146      .   S
    C113   O146      0.99146  1_565   S
    C7     O147      0.99251      .   S
    C92    O147      0.99251  1_556   S
    C73    O148      0.66368      .   S
    C102   O148      0.66368      .   S
    C135   O149      0.64565      .   S
    C84    O149      0.64565      .   S
    C136   O150      0.62015      .   S
    C85    O150      0.62015      .   S
    C84    O151      0.64268      .   S
    C134   O151      0.64268      .   S
    C84    O152      0.74121      .   S
    C81    O152      0.74121      .   S
    C32    O153      0.54444      .   S
    C80    O153      0.54444      .   S
    C103   O154      0.68872      .   S
    C102   O154      0.68872      .   S
    C103   O155      1.01282  1_565   S
    C4     O155      1.01282      .   S
    C81    O156      0.70334      .   S
    C80    O156      0.70334      .   S
    C81    O157      0.70553      .   S
    C82    O157      0.70553      .   S
    C80    O158      0.69436      .   S
    C79    O158      0.69436      .   S
    C113   O159      0.68148      .   S
    C88    O159      0.68148  1_545   S
    C113   O160      0.67984      .   S
    C89    O160      0.67984      .   S
    C102   O161      1.07453      .   S
    C9     O161      1.07453      .   S
    C36    O162      0.54236      .   S
    C88    O162      0.54236      .   S
    C85    O163      0.75488      .   S
    C82    O163      0.75488      .   S
    C85    O164      0.65256      .   S
    C137   O164      0.65256      .   S
    C82    O165      0.69913      .   S
    C83    O165      0.69913      .   S
    C88    O166      0.66443  1_545   S
    C111   O166      0.66443      .   S
    C79    O167      0.54432      .   S
    C31    O167      0.54432      .   S
    C79    O168      0.70164      .   S
    C78    O168      0.70164      .   S
    C37    O169      0.54263      .   S
    C89    O169      0.54263      .   S
    C89    O170      0.66381      .   S
    C112   O170      0.66381      .   S
    C83    O171      0.69930      .   S
    C78    O171      0.69930      .   S
    C83    O172      0.54454      .   S
    C33    O172      0.54454      .   S
    C78    O173      0.75069      .   S
    C77    O173      0.75069      .   S
    C132   O174      0.63350      .   S
    C77    O174      0.63350      .   S
    C132   O175      1.06538      .   S
    C9     O175      1.06538      .   S
    C111   O176      0.68723      .   S
    C112   O176      0.68723      .   S
    C111   O177      1.10757  1_655   S
    C9     O177      1.10757      .   S
    C77    O178      0.64187      .   S
    C133   O178      0.64187      .   S
    C112   O179      1.02468      .   S
    C6     O179      1.02468      .   S
    C4     O180      0.96888      .   S
    C137   O180      0.96888      .   S
    C4     O181      0.98931  1_545   S
    C127   O181      0.98931      .   S
    C4     O182      1.02415      .   S
    C106   O182      1.02415      .   S
    C133   O183      0.99063      .   S
    C6     O183      0.99063  1_655   S
    C9     O184      1.10986      .   S
    C105   O184      1.10986  1_545   S
    C9     O185      1.06431      .   S
    C126   O185      1.06431      .   S
    C9     O186      1.07610      .   S
    C108   O186      1.07610      .   S
    C127   O187      0.64173      .   S
    C64    O187      0.64173      .   S
    C131   O188      0.96867      .   S
    C6     O188      0.96867      .   S
    C131   O189      0.65260      .   S
    C72    O189      0.65260      .   S
    C6     O190      0.98254      .   S
    C109   O190      0.98254  1_455   S
    C106   O191      0.68727      .   S
    C105   O191      0.68727      .   S
    C106   O192      0.66435      .   S
    C76    O192      0.66435      .   S
    C64    O193      0.63358      .   S
    C126   O193      0.63358      .   S
    C64    O194      0.75048      .   S
    C65    O194      0.75048      .   S
    C105   O195      0.66460      .   S
    C75    O195      0.66460  1_655   S
    C26    O196      0.54453      .   S
    C70    O196      0.54453      .   S
    C65    O197      0.69930      .   S
    C70    O197      0.69930      .   S
    C65    O198      0.70160      .   S
    C66    O198      0.70160      .   S
    C70    O199      0.69898      .   S
    C69    O199      0.69898      .   S
    C76    O200      0.54263      .   S
    C30    O200      0.54263      .   S
    C76    O201      0.70355      .   S
    C107   O201      0.70355      .   S
    C24    O202      0.54431      .   S
    C66    O202      0.54431      .   S
    C66    O203      0.69432      .   S
    C67    O203      0.69432      .   S
    C75    O204      0.54230      .   S
    C29    O204      0.54230      .   S
    C75    O205      0.67020      .   S
    C107   O205      0.67020  1_455   S
    C69    O206      0.75485      .   S
    C72    O206      0.75485      .   S
    C69    O207      0.70544      .   S
    C68    O207      0.70544      .   S
    C72    O208      0.62007      .   S
    C130   O208      0.62007      .   S
    C108   O209      0.74128      .   S
    C109   O209      0.74128      .   S
    C108   O210      0.66374      .   S
    C86    O210      0.66374      .   S
    C107   O211      0.98418  1_455   S
    C5     O211      0.98418      .   S
    C67    O212      0.70326      .   S
    C68    O212      0.70326      .   S
    C67    O213      0.54444      .   S
    C25    O213      0.54444      .   S
    C68    O214      0.74082      .   S
    C71    O214      0.74082      .   S
    C109   O215      0.66267  1_455   S
    C87    O215      0.66267      .   S
    C128   O216      0.64292      .   S
    C71    O216      0.64292      .   S
    C128   O217      1.02367      .   S
    C5     O217      1.02367      .   S
    C71    O218      0.64538      .   S
    C129   O218      0.64538      .   S
    C129   O219      1.02791      .   S
    C5     O219      1.02791      .   S
    C86    O220      0.54203      .   S
    C34    O220      0.54203      .   S
    C86    O221      0.68170      .   S
    C110   O221      0.68170      .   S
    C5     O222      0.99281      .   S
    C98    O222      0.99281      .   S
    C87    O223      0.54261      .   S
    C35    O223      0.54261      .   S
    C87    O224      0.67992  1_655   S
    C110   O224      0.67992      .   S
    C110   O225      0.99344      .   S
    C1     O225      0.99344      .   S
    C98    O226      0.67306      .   S
    C61    O226      0.67306  1_455   S
    C98    O227      0.68210      .   S
    C60    O227      0.68210      .   S
    C21    O228      0.54986      .   S
    C61    O228      0.54986      .   S
    C61    O229      0.66423  1_455   S
    C97    O229      0.66423      .   S
    C20    O230      0.54202      .   S
    C60    O230      0.54202      .   S
    C1     O231      1.02791      .   S
    C117   O231      1.02791      .   S
    C1     O232      1.02347      .   S
    C116   O232      1.02347      .   S
    C1     O233      0.99264      .   S
    C95    O233      0.99264  1_655   S
    C60    O234      0.66377      .   S
    C96    O234      0.66377      .   S
    C117   O235      0.64538      .   S
    C45    O235      0.64538      .   S
    C118   O236      0.61973      .   S
    C46    O236      0.61973      .   S
    C45    O237      0.64298      .   S
    C116   O237      0.64298      .   S
    C45    O238      0.74081      .   S
    C42    O238      0.74081      .   S
    C11    O239      0.54445      .   S
    C41    O239      0.54445      .   S
    C97    O240      0.68867      .   S
    C96    O240      0.68867      .   S
    C97    O241      1.01257  1_655   S
    C2     O241      1.01257      .   S
    C42    O242      0.70326      .   S
    C41    O242      0.70326      .   S
    C42    O243      0.70540      .   S
    C43    O243      0.70540      .   S
    C41    O244      0.69431      .   S
    C40    O244      0.69431      .   S
    C95    O245      0.68163      .   S
    C49    O245      0.68163  1_455   S
    C95    O246      0.67964      .   S
    C50    O246      0.67964      .   S
    C96    O247      1.07607      .   S
    C8     O247      1.07607      .   S
    C15    O248      0.54237      .   S
    C49    O248      0.54237      .   S
    C46    O249      0.75486      .   S
    C43    O249      0.75486      .   S
    C46    O250      0.65292      .   S
    C119   O250      0.65292      .   S
    C43    O251      0.69907      .   S
    C44    O251      0.69907      .   S
    C49    O252      0.66445  1_455   S
    C93    O252      0.66445      .   S
    C40    O253      0.54431      .   S
    C10    O253      0.54431      .   S
    C40    O254      0.70161      .   S
    C39    O254      0.70161      .   S
    C16    O255      0.54263      .   S
    C50    O255      0.54263      .   S
    C50    O256      0.66434      .   S
    C94    O256      0.66434      .   S
    C44    O257      0.69931      .   S
    C39    O257      0.69931      .   S
    C44    O258      0.54441      .   S
    C12    O258      0.54441      .   S
    C39    O259      0.75028      .   S
    C38    O259      0.75028      .   S
    C114   O260      0.63356      .   S
    C38    O260      0.63356      .   S
    C114   O261      1.06433      .   S
    C8     O261      1.06433      .   S
    C93    O262      0.68727      .   S
    C94    O262      0.68727      .   S
    C93    O263      1.10999  1_565   S
    C8     O263      1.10999      .   S
    C38    O264      0.64192      .   S
    C115   O264      0.64192      .   S
    C94    O265      1.02404      .   S
    C0     O265      1.02404      .   S
    C2     O266      0.96867      .   S
    C119   O266      0.96867      .   S
    C2     O267      0.99057  1_455   S
    C121   O267      0.99057      .   S
    C2     O268      1.02428      .   S
    C100   O268      1.02428      .   S
    C115   O269      0.98921      .   S
    C0     O269      0.98921  1_565   S
    C8     O270      1.10767      .   S
    C99    O270      1.10767  1_455   S
    C8     O271      1.06534      .   S
    C120   O271      1.06534      .   S
    C8     O272      1.07445      .   S
    C90    O272      1.07445      .   S
    C121   O273      0.64187      .   S
    C51    O273      0.64187      .   S
    C125   O274      0.96883      .   S
    C0     O274      0.96883      .   S
    C125   O275      0.65250      .   S
    C59    O275      0.65250      .   S
    C0     O276      0.98407      .   S
    C91    O276      0.98407  1_545   S
    C100   O277      0.68720      .   S
    C99    O277      0.68720      .   S
    C100   O278      0.66427      .   S
    C63    O278      0.66427      .   S
    C51    O279      0.63350      .   S
    C120   O279      0.63350      .   S
    C51    O280      0.75069      .   S
    C52    O280      0.75069      .   S
    C99    O281      0.66439      .   S
    C62    O281      0.66439  1_565   S
    C19    O282      0.54454      .   S
    C57    O282      0.54454      .   S
    C52    O283      0.69929      .   S
    C57    O283      0.69929      .   S
    C52    O284      0.70164      .   S
    C53    O284      0.70164      .   S
    C57    O285      0.69915      .   S
    C56    O285      0.69915      .   S
    C63    O286      0.54263      .   S
    C23    O286      0.54263      .   S
    C63    O287      0.70371      .   S
    C101   O287      0.70371      .   S
    C17    O288      0.54431      .   S
    C53    O288      0.54431      .   S
    C53    O289      0.69436      .   S
    C54    O289      0.69436      .   S
    C62    O290      0.54236      .   S
    C22    O290      0.54236      .   S
    C62    O291      0.67012      .   S
    C101   O291      0.67012  1_545   S
    C56    O292      0.75488      .   S
    C59    O292      0.75488      .   S
    C56    O293      0.70553      .   S
    C55    O293      0.70553      .   S
    C59    O294      0.62023      .   S
    C124   O294      0.62023      .   S
    C90    O295      0.73972      .   S
    C91    O295      0.73972      .   S
    C90    O296      0.66334      .   S
    C47    O296      0.66334      .   S
    C101   O297      0.98295  1_545   S
    C3     O297      0.98295      .   S
    C54    O298      0.70334      .   S
    C55    O298      0.70334      .   S
    C54    O299      0.54446      .   S
    C18    O299      0.54446      .   S
    C55    O300      0.74121      .   S
    C58    O300      0.74121      .   S
    C91    O301      0.66252  1_545   S
    C48    O301      0.66252      .   S
    C122   O302      0.64269      .   S
    C58    O302      0.64269      .   S
    C122   O303      1.02503      .   S
    C3     O303      1.02503      .   S
    C58    O304      0.64565      .   S
    C123   O304      0.64565      .   S
    C123   O305      1.02727      .   S
    C3     O305      1.02727      .   S
    C47    O306      0.54210      .   S
    C13    O306      0.54210      .   S
    C47    O307      0.68183      .   S
    C92    O307      0.68183      .   S
    C48    O308      0.54272      .   S
    C14    O308      0.54272      .   S
    C48    O309      0.68003  1_565   S
    C92    O309      0.68003      .   S
