# CIF file generated by openbabel 2.4.90, see http://openbabel.sf.net
data_I
_chemical_name_common ''
_cell_length_a 15.541
_cell_length_b 15.536
_cell_length_c 15.533
_cell_angle_alpha 76.13
_cell_angle_beta 76.134
_cell_angle_gamma 76.139
_space_group_name_H-M_alt 'P 1'
_space_group_name_Hall 'P 1'
loop_
    _symmetry_equiv_pos_as_xyz
    x,y,z
loop_
    _atom_site_label
    _atom_site_type_symbol
    _atom_site_fract_x
    _atom_site_fract_y
    _atom_site_fract_z
    _atom_site_occupancy
    Zr0     Zr   0.07554   0.51084   0.51085   1.000
    Zr1     Zr   0.51083   0.07562   0.51080   1.000
    Zr2     Zr   0.51081   0.51082   0.07565   1.000
    Zr3     Zr   0.48917   0.92438   0.48918   1.000
    Zr4     Zr   0.92444   0.48915   0.48917   1.000
    Zr5     Zr   0.48919   0.48917   0.92437   1.000
    O6      O    0.99999   0.50000   0.50001   1.000
    O7      O    0.50000   0.00000   0.49999   1.000
    O8      O    0.50000   0.50000   0.00001   1.000
    N9      N    0.50000   1.00000   0.00000   1.000
    O10     O    0.50148   0.78856   0.02306   1.000
    O11     O    0.49852   0.97696   0.21142   1.000
    O12     O    0.50847   0.04852   0.22154   1.000
    O13     O    0.50845   0.22154   0.04852   1.000
    O14     O    0.49852   0.21143   0.97695   1.000
    O15     O    0.49152   0.95147   0.77846   1.000
    O16     O    0.49154   0.77845   0.95149   1.000
    O17     O    0.50148   0.02303   0.78856   1.000
    N18     N    1.00000   0.50000   0.00000   1.000
    O19     O    0.95147   0.49154   0.77844   1.000
    O20     O    0.02297   0.50152   0.78858   1.000
    O21     O    0.97702   0.49847   0.21144   1.000
    O22     O    0.04852   0.50846   0.22155   1.000
    O23     O    0.21145   0.49843   0.97694   1.000
    O24     O    0.22155   0.50839   0.04851   1.000
    O25     O    0.78855   0.50156   0.02306   1.000
    O26     O    0.77845   0.49160   0.95150   1.000
    N27     N    1.00000   1.00000   0.50000   1.000
    O28     O    0.97702   0.21143   0.49847   1.000
    O29     O    0.04852   0.22155   0.50845   1.000
    O30     O    0.78856   0.02305   0.50156   1.000
    O31     O    0.95147   0.77845   0.49154   1.000
    O32     O    0.22155   0.04851   0.50839   1.000
    O33     O    0.21144   0.97695   0.49844   1.000
    O34     O    0.77844   0.95149   0.49161   1.000
    O35     O    0.02297   0.78857   0.50154   1.000
loop_
    _geom_bond_atom_site_label_1
    _geom_bond_atom_site_label_2
    _geom_bond_distance
    _geom_bond_site_symmetry_2
    _ccdc_geom_bond_type
    Zr0    O6        1.28000  1_455   S
    Zr4    O6        1.28000      .   S
    Zr1    O7        1.28047      .   S
    Zr3    O7        1.28048  1_565   S
    Zr2    O8        1.28056      .   S
    Zr5    O8        1.28056  1_556   S
    N9     O10       3.21292      .   S
    Zr2    O10       4.16825      .   S
    N9     O11       3.21207      .   S
    Zr3    O11       4.16767      .   S
    N9     O12       3.73301  1_565   S
    Zr1    O12       4.62172      .   S
    N9     O13       3.73357  1_565   S
    Zr2    O13       4.62297      .   S
    N9     O14       3.21294  1_564   S
    Zr5    O14       4.16827      .   S
    N9     O15       3.73303  1_554   S
    Zr3    O15       4.62196      .   S
    N9     O16       3.73351  1_554   S
    Zr5    O16       4.62290      .   S
    N9     O17       3.21234  1_564   S
    Zr1    O17       4.16771      .   S
    N18    O19       3.73342  1_554   S
    Zr4    O19       4.62160      .   S
    N18    O20       3.21219  1_654   S
    Zr0    O20       4.16730      .   S
    N18    O21       3.21226      .   S
    Zr4    O21       4.16738      .   S
    N18    O22       3.73322  1_655   S
    Zr0    O22       4.62193      .   S
    N18    O23       3.21395  1_654   S
    Zr5    O23       4.16981      .   S
    N18    O24       3.73431  1_655   S
    Zr2    O24       4.62447      .   S
    N18    O25       3.21394      .   S
    Zr2    O25       4.16980      .   S
    N18    O26       3.73428  1_554   S
    Zr5    O26       4.62444      .   S
    N27    O28       3.21283  1_565   S
    Zr4    O28       4.16827      .   S
    N27    O29       3.73373  1_665   S
    Zr0    O29       4.62278      .   S
    N27    O30       3.21382  1_565   S
    Zr1    O30       4.16982      .   S
    N27    O31       3.73379      .   S
    Zr4    O31       4.62273      .   S
    N27    O32       3.73439  1_665   S
    Zr1    O32       4.62444      .   S
    N27    O33       3.21383  1_655   S
    Zr3    O33       4.16977      .   S
    N27    O34       3.73440      .   S
    Zr3    O34       4.62451      .   S
    N27    O35       3.21282  1_655   S
    Zr0    O35       4.16825      .   S
