# CIF file generated by openbabel 2.4.90, see http://openbabel.sf.net
data_I
_chemical_name_common ''
_cell_length_a 18.425
_cell_length_b 18.43
_cell_length_c 18.431
_cell_angle_alpha 60.151
_cell_angle_beta 60.163
_cell_angle_gamma 60.161
_space_group_name_H-M_alt 'P 1'
_space_group_name_Hall 'P 1'
loop_
    _symmetry_equiv_pos_as_xyz
    x,y,z
loop_
    _atom_site_label
    _atom_site_type_symbol
    _atom_site_fract_x
    _atom_site_fract_y
    _atom_site_fract_z
    _atom_site_occupancy
    H0      H    0.45180   0.45127   0.93200   1.000
    H1      H    0.45194   0.45255   0.16431   1.000
    H2      H    0.93184   0.16434   0.45208   1.000
    H3      H    0.16436   0.93184   0.45155   1.000
    H4      H    0.45182   0.93187   0.16433   1.000
    H5      H    0.45180   0.16434   0.93180   1.000
    H6      H    0.93188   0.45160   0.45150   1.000
    H7      H    0.16435   0.45219   0.45229   1.000
    H8      H    0.45195   0.16433   0.45254   1.000
    H9      H    0.45183   0.93199   0.45124   1.000
    H10     H    0.93184   0.45211   0.16433   1.000
    H11     H    0.16436   0.45151   0.93186   1.000
    H12     H    0.54817   0.54872   0.06799   1.000
    H13     H    0.54803   0.54744   0.83567   1.000
    H14     H    0.83561   0.06815   0.54844   1.000
    H15     H    0.06812   0.83564   0.54791   1.000
    H16     H    0.06813   0.54787   0.83566   1.000
    H17     H    0.83560   0.54848   0.06813   1.000
    H18     H    0.54814   0.06800   0.54874   1.000
    H19     H    0.54802   0.83566   0.54745   1.000
    H20     H    0.83561   0.54779   0.54770   1.000
    H21     H    0.06808   0.54839   0.54841   1.000
    H22     H    0.54815   0.06812   0.83566   1.000
    H23     H    0.54817   0.83565   0.06810   1.000
    C24     C    0.47329   0.47299   0.96102   1.000
    C25     C    0.47338   0.47371   0.09233   1.000
    C26     C    0.96091   0.09235   0.47346   1.000
    C27     C    0.09236   0.96091   0.47316   1.000
    C28     C    0.47331   0.96093   0.09234   1.000
    C29     C    0.47330   0.09235   0.96000   1.000
    C30     C    0.96096   0.47317   0.47317   1.000
    C31     C    0.09235   0.47351   0.47357   1.000
    C32     C    0.47339   0.09234   0.47370   1.000
    C33     C    0.47331   0.96102   0.47298   1.000
    C34     C    0.96090   0.47348   0.09234   1.000
    C35     C    0.09236   0.47314   0.96092   1.000
    C36     C    0.52667   0.52700   0.03897   1.000
    C37     C    0.52659   0.52627   0.90766   1.000
    C38     C    0.90761   0.03907   0.52683   1.000
    C39     C    0.03906   0.90764   0.52653   1.000
    C40     C    0.03907   0.52651   0.90765   1.000
    C41     C    0.90761   0.52685   0.03907   1.000
    C42     C    0.52666   0.03897   0.52701   1.000
    C43     C    0.52658   0.90765   0.52628   1.000
    C44     C    0.90762   0.52648   0.52640   1.000
    C45     C    0.03901   0.52682   0.52682   1.000
    C46     C    0.52666   0.03906   0.90765   1.000
    C47     C    0.52667   0.90764   0.03909   1.000
    C48     C    0.44634   0.44637   0.05370   1.000
    C49     C    0.05362   0.05360   0.44620   1.000
    C50     C    0.44628   0.05362   0.05358   1.000
    C51     C    0.05370   0.44634   0.44638   1.000
    C52     C    0.44636   0.05371   0.44634   1.000
    C53     C    0.05362   0.44628   0.05360   1.000
    C54     C    0.55363   0.55362   0.94628   1.000
    C55     C    0.94634   0.94638   0.55371   1.000
    C56     C    0.94635   0.55370   0.94639   1.000
    C57     C    0.55360   0.94627   0.55365   1.000
    C58     C    0.94627   0.55365   0.55360   1.000
    C59     C    0.55369   0.94636   0.94641   1.000
loop_
    _geom_bond_atom_site_label_1
    _geom_bond_atom_site_label_2
    _geom_bond_distance
    _geom_bond_site_symmetry_2
    _ccdc_geom_bond_type
    C36    H12       1.08858      .   S
    C36    C25       1.39035      .   S
    C36    C54       1.40348  1_554   S
    C41    H17       1.08859      .   S
    C41    C34       1.39016      .   S
    C41    C56       1.40323  1_554   S
    C47    H23       1.08849      .   S
    C47    C28       1.39029      .   S
    C47    C59       1.40318  1_554   S
    C50    C28       1.40335  1_545   S
    C50    C29       1.41628  1_554   S
    C53    C34       1.40354  1_455   S
    C53    C35       1.40323  1_554   S
    C48    C25       1.40323      .   S
    C48    C24       1.40332  1_554   S
    C25    H1        1.08856      .   S
    C28    H4        1.08859      .   S
    C34    H10       1.08860      .   S
    C49    C27       1.40330  1_545   S
    C49    C26       1.40354  1_455   S
    C52    C33       1.40349  1_545   S
    C52    C32       1.40319      .   S
    C51    C30       1.40377  1_455   S
    C51    C31       1.40322      .   S
    H9     C33       1.08869      .   S
    H6     C30       1.08976      .   S
    H3     C27       1.08860      .   S
    H2     C26       1.08858      .   S
    H7     C31       1.08863      .   S
    H8     C32       1.08860      .   S
    C33    C43       1.39034      .   S
    C27    C39       1.39020      .   S
    C30    C44       1.39023      .   S
    C26    C38       1.39022      .   S
    C31    C45       1.39048      .   S
    C32    C42       1.39046      .   S
    C43    H19       1.08861      .   S
    C43    C57       1.40323      .   S
    C44    H20       1.08860      .   S
    C44    C58       1.40345      .   S
    C39    H15       1.08858      .   S
    C39    C55       1.40355  1_455   S
    C45    H21       1.08864      .   S
    C45    C58       1.40379  1_455   S
    C38    H14       1.08860      .   S
    C38    C55       1.40330  1_545   S
    C42    H18       1.08852      .   S
    C42    C57       1.40350  1_545   S
    H16    C40       1.08860      .   S
    H22    C46       1.08859      .   S
    H13    C37       1.08872      .   S
    C46    C59       1.40334  1_545   S
    C46    C29       1.37863      .   S
    C40    C56       1.40354  1_455   S
    C40    C35       1.39016      .   S
    C37    C54       1.40306      .   S
    C37    C24       1.39035      .   S
    H5     C29       1.08762      .   S
    H11    C35       1.08859      .   S
    H0     C24       1.08858      .   S
