# CIF file generated by openbabel 2.4.90, see http://openbabel.sf.net
data_I
_chemical_name_common ''
_cell_length_a 18.425
_cell_length_b 18.43
_cell_length_c 18.431
_cell_angle_alpha 60.151
_cell_angle_beta 60.163
_cell_angle_gamma 60.161
_space_group_name_H-M_alt 'P 1'
_space_group_name_Hall 'P 1'
loop_
    _symmetry_equiv_pos_as_xyz
    x,y,z
loop_
    _atom_site_label
    _atom_site_type_symbol
    _atom_site_fract_x
    _atom_site_fract_y
    _atom_site_fract_z
    _atom_site_occupancy
    C0      C    0.38900   0.38905   0.11107   1.000
    C1      C    0.11094   0.11091   0.38879   1.000
    C2      C    0.38883   0.11093   0.11087   1.000
    C3      C    0.11105   0.38902   0.38905   1.000
    C4      C    0.38904   0.11109   0.38000   1.000
    C5      C    0.11094   0.38882   0.11090   1.000
    C6      C    0.61097   0.61094   0.88890   1.000
    C7      C    0.88902   0.88908   0.61119   1.000
    C8      C    0.88903   0.61117   0.88909   1.000
    C9      C    0.61092   0.88890   0.61000   1.000
    C10     C    0.88891   0.61097   0.61093   1.000
    C11     C    0.61115   0.88905   0.88912   1.000
