# CIF file generated by openbabel 2.4.90, see http://openbabel.sf.net
data_I
_chemical_name_common ''
_cell_length_a 18.425
_cell_length_b 18.43
_cell_length_c 18.431
_cell_angle_alpha 60.151
_cell_angle_beta 60.163
_cell_angle_gamma 60.161
_space_group_name_H-M_alt 'P 1'
_space_group_name_Hall 'P 1'
loop_
    _symmetry_equiv_pos_as_xyz
    x,y,z
loop_
    _atom_site_label
    _atom_site_type_symbol
    _atom_site_fract_x
    _atom_site_fract_y
    _atom_site_fract_z
    _atom_site_occupancy
    C0      C    0.29335   0.29329   0.11953   1.000
    C1      C    0.29363   0.29367   0.29364   1.000
    C2      C    0.11953   0.29335   0.29332   1.000
    C3      C    0.29336   0.11955   0.29326   1.000
    C4      C    0.70662   0.70670   0.88040   1.000
    C5      C    0.70633   0.70632   0.70635   1.000
    C6      C    0.70661   0.88044   0.70673   1.000
    C7      C    0.88044   0.70664   0.70666   1.000
    C8      C    0.45180   0.45127   0.93200   1.000
    C9      C    0.45194   0.45255   0.16431   1.000
    C10     C    0.93184   0.16434   0.45208   1.000
    C11     C    0.16436   0.93184   0.45155   1.000
    C12     C    0.45182   0.93187   0.16433   1.000
    C13     C    0.45180   0.16434   0.93180   1.000
    C14     C    0.93188   0.45160   0.45150   1.000
    C15     C    0.16435   0.45219   0.45229   1.000
    C16     C    0.45195   0.16433   0.45254   1.000
    C17     C    0.45183   0.93199   0.45124   1.000
    C18     C    0.93184   0.45211   0.16433   1.000
    C19     C    0.16436   0.45151   0.93186   1.000
    C20     C    0.54817   0.54872   0.06799   1.000
    C21     C    0.54803   0.54744   0.83567   1.000
    C22     C    0.83561   0.06815   0.54844   1.000
    C23     C    0.06812   0.83564   0.54791   1.000
    C24     C    0.06813   0.54787   0.83566   1.000
    C25     C    0.83560   0.54848   0.06813   1.000
    C26     C    0.54814   0.06800   0.54874   1.000
    C27     C    0.54802   0.83566   0.54745   1.000
    C28     C    0.83561   0.54779   0.54770   1.000
    C29     C    0.06808   0.54839   0.54841   1.000
    C30     C    0.54815   0.06812   0.83566   1.000
    C31     C    0.54817   0.83565   0.06810   1.000
    C32     C    0.47329   0.47299   0.96102   1.000
    C33     C    0.47338   0.47371   0.09233   1.000
    C34     C    0.96091   0.09235   0.47346   1.000
    C35     C    0.09236   0.96091   0.47316   1.000
    C36     C    0.47331   0.96093   0.09234   1.000
    C37     C    0.47330   0.09235   0.96000   1.000
    C38     C    0.96096   0.47317   0.47317   1.000
    C39     C    0.09235   0.47351   0.47357   1.000
    C40     C    0.47339   0.09234   0.47370   1.000
    C41     C    0.47331   0.96102   0.47298   1.000
    C42     C    0.96090   0.47348   0.09234   1.000
    C43     C    0.09236   0.47314   0.96092   1.000
    C44     C    0.52667   0.52700   0.03897   1.000
    C45     C    0.52659   0.52627   0.90766   1.000
    C46     C    0.90761   0.03907   0.52683   1.000
    C47     C    0.03906   0.90764   0.52653   1.000
    C48     C    0.03907   0.52651   0.90765   1.000
    C49     C    0.90761   0.52685   0.03907   1.000
    C50     C    0.52666   0.03897   0.52701   1.000
    C51     C    0.52658   0.90765   0.52628   1.000
    C52     C    0.90762   0.52648   0.52640   1.000
    C53     C    0.03901   0.52682   0.52682   1.000
    C54     C    0.52666   0.03906   0.90765   1.000
    C55     C    0.52667   0.90764   0.03909   1.000
    C56     C    0.38900   0.38905   0.11107   1.000
    C57     C    0.44634   0.44637   0.05370   1.000
    C58     C    0.11094   0.11091   0.38879   1.000
    C59     C    0.05362   0.05360   0.44620   1.000
    C60     C    0.38883   0.11093   0.11087   1.000
    C61     C    0.44628   0.05362   0.05358   1.000
    C62     C    0.11105   0.38902   0.38905   1.000
    C63     C    0.05370   0.44634   0.44638   1.000
    C64     C    0.38904   0.11109   0.38000   1.000
    C65     C    0.44636   0.05371   0.44634   1.000
    C66     C    0.11094   0.38882   0.11090   1.000
    C67     C    0.05362   0.44628   0.05360   1.000
    C68     C    0.61097   0.61094   0.88890   1.000
    C69     C    0.55363   0.55362   0.94628   1.000
    C70     C    0.88902   0.88908   0.61119   1.000
    C71     C    0.94634   0.94638   0.55371   1.000
    C72     C    0.88903   0.61117   0.88909   1.000
    C73     C    0.94635   0.55370   0.94639   1.000
    C74     C    0.61092   0.88890   0.61000   1.000
    C75     C    0.55360   0.94627   0.55365   1.000
    C76     C    0.88891   0.61097   0.61093   1.000
    C77     C    0.94627   0.55365   0.55360   1.000
    C78     C    0.61115   0.88905   0.88912   1.000
    C79     C    0.55369   0.94636   0.94641   1.000
    C80     C    0.25001   0.25001   0.24990   1.000
    C81     C    0.74996   0.74998   0.75000   1.000
    C82     C    0.36674   0.36685   0.07146   1.000
    C83     C    0.36704   0.36708   0.19486   1.000
    C84     C    0.07135   0.19469   0.36657   1.000
    C85     C    0.19474   0.07131   0.36660   1.000
    C86     C    0.36668   0.07134   0.19465   1.000
    C87     C    0.36665   0.19472   0.07127   1.000
    C88     C    0.07142   0.36683   0.36600   1.000
    C89     C    0.19487   0.36703   0.36710   1.000
    C90     C    0.36719   0.19489   0.36691   1.000
    C91     C    0.36671   0.07148   0.36686   1.000
    C92     C    0.07135   0.36656   0.19467   1.000
    C93     C    0.19473   0.36676   0.07130   1.000
    C94     C    0.63322   0.63314   0.92852   1.000
    C95     C    0.63293   0.63291   0.80512   1.000
    C96     C    0.80523   0.92868   0.63331   1.000
    C97     C    0.92862   0.80530   0.63342   1.000
    C98     C    0.92862   0.63343   0.80531   1.000
    C99     C    0.80524   0.63323   0.92869   1.000
    C100    C    0.63326   0.92851   0.63312   1.000
    C101    C    0.63279   0.80510   0.63307   1.000
    C102    C    0.80509   0.63295   0.63289   1.000
    C103    C    0.92854   0.63316   0.63320   1.000
    C104    C    0.63328   0.92864   0.80534   1.000
    C105    C    0.63330   0.80527   0.92872   1.000
    O106    O    0.53742   0.53786   0.05348   1.000
    O107    O    0.50003   0.50035   0.06565   1.000
    O108    O    0.54015   0.54031   0.99263   1.000
    O109    O    0.87160   0.53766   0.05360   1.000
    O110    O    0.93425   0.50016   0.06570   1.000
    O111    O    0.92698   0.54028   0.99273   1.000
    O112    O    0.53742   0.87164   0.05359   1.000
    O113    O    0.49999   0.93428   0.06572   1.000
    O114    O    0.54018   0.92700   0.99275   1.000
    O115    O    0.45979   0.00728   0.07296   1.000
    O116    O    0.41756   0.08228   0.08223   1.000
    O117    O    0.45979   0.07299   0.00679   1.000
    O118    O    0.00726   0.45988   0.07297   1.000
    O119    O    0.08228   0.41755   0.08225   1.000
    O120    O    0.07299   0.45971   0.00726   1.000
    O121    O    0.45986   0.46004   0.07302   1.000
    O122    O    0.41767   0.41771   0.08238   1.000
    O123    O    0.45982   0.45968   0.00736   1.000
    O124    O    0.37774   0.15283   0.09107   1.000
    O125    O    0.33000   0.24401   0.09540   1.000
    O126    O    0.15283   0.37779   0.09110   1.000
    O127    O    0.24404   0.33003   0.09541   1.000
    O128    O    0.37787   0.37795   0.09126   1.000
    O129    O    0.33004   0.33007   0.09550   1.000
    O130    O    0.46266   0.46313   0.12832   1.000
    O131    O    0.46257   0.94640   0.12834   1.000
    O132    O    0.94637   0.46280   0.12834   1.000
    O133    O    0.37775   0.09114   0.15276   1.000
    O134    O    0.09114   0.37769   0.15279   1.000
    O135    O    0.37802   0.37806   0.15297   1.000
    O136    O    0.27168   0.27165   0.18472   1.000
    O137    O    0.33002   0.09545   0.24396   1.000
    O138    O    0.09544   0.32996   0.24399   1.000
    O139    O    0.33034   0.33037   0.24425   1.000
    O140    O    0.27169   0.18478   0.27158   1.000
    O141    O    0.24405   0.09543   0.32993   1.000
    O142    O    0.33003   0.09551   0.33006   1.000
    O143    O    0.09548   0.33009   0.32966   1.000
    O144    O    0.09544   0.24402   0.32995   1.000
    O145    O    0.33041   0.24428   0.33028   1.000
    O146    O    0.24425   0.33035   0.33037   1.000
    O147    O    0.09124   0.37792   0.37753   1.000
    O148    O    0.09115   0.15280   0.37768   1.000
    O149    O    0.15284   0.09111   0.37770   1.000
    O150    O    0.37788   0.09128   0.37343   1.000
    O151    O    0.37811   0.15299   0.37346   1.000
    O152    O    0.15296   0.37803   0.37808   1.000
    O153    O    0.41770   0.08240   0.41317   1.000
    O154    O    0.08228   0.08226   0.41750   1.000
    O155    O    0.08237   0.41768   0.41772   1.000
    O156    O    0.07299   0.00726   0.45968   1.000
    O157    O    0.00727   0.07298   0.45983   1.000
    O158    O    0.45983   0.00737   0.45966   1.000
    O159    O    0.45987   0.07303   0.46002   1.000
    O160    O    0.00733   0.45975   0.45977   1.000
    O161    O    0.07302   0.45992   0.45998   1.000
    O162    O    0.46257   0.94650   0.46211   1.000
    O163    O    0.94642   0.46238   0.46233   1.000
    O164    O    0.12836   0.94637   0.46236   1.000
    O165    O    0.94637   0.12835   0.46277   1.000
    O166    O    0.12835   0.46285   0.46293   1.000
    O167    O    0.46267   0.12833   0.46312   1.000
    O168    O    0.49995   0.93433   0.49963   1.000
    O169    O    0.06571   0.93427   0.49985   1.000
    O170    O    0.93429   0.49982   0.49978   1.000
    O171    O    0.93426   0.06571   0.50015   1.000
    O172    O    0.06568   0.50016   0.50019   1.000
    O173    O    0.50002   0.06566   0.50035   1.000
    O174    O    0.53730   0.87165   0.53687   1.000
    O175    O    0.54009   0.92696   0.53996   1.000
    O176    O    0.87162   0.53713   0.53705   1.000
    O177    O    0.92694   0.54006   0.54000   1.000
    O178    O    0.05359   0.87164   0.53722   1.000
    O179    O    0.99270   0.92701   0.54012   1.000
    O180    O    0.05355   0.53760   0.53761   1.000
    O181    O    0.99264   0.54023   0.54021   1.000
    O182    O    0.87161   0.05361   0.53763   1.000
    O183    O    0.92698   0.99273   0.54027   1.000
    O184    O    0.53740   0.05349   0.53787   1.000
    O185    O    0.54013   0.99262   0.54033   1.000
    O186    O    0.91759   0.58231   0.58227   1.000
    O187    O    0.58226   0.91759   0.58182   1.000
    O188    O    0.91768   0.91773   0.58245   1.000
    O189    O    0.62185   0.84700   0.62154   1.000
    O190    O    0.62209   0.90870   0.62156   1.000
    O191    O    0.84700   0.62196   0.62191   1.000
    O192    O    0.90873   0.62206   0.62206   1.000
    O193    O    0.84713   0.90888   0.62225   1.000
    O194    O    0.90882   0.84719   0.62230   1.000
    O195    O    0.75571   0.66963   0.66962   1.000
    O196    O    0.66956   0.75571   0.66971   1.000
    O197    O    0.66993   0.90447   0.66993   1.000
    O198    O    0.90449   0.66990   0.66993   1.000
    O199    O    0.75592   0.90456   0.67002   1.000
    O200    O    0.90453   0.75597   0.67004   1.000
    O201    O    0.66963   0.66961   0.75574   1.000
    O202    O    0.90453   0.67003   0.75599   1.000
    O203    O    0.72828   0.81521   0.72837   1.000
    O204    O    0.66995   0.90454   0.75604   1.000
    O205    O    0.72829   0.72834   0.81520   1.000
    O206    O    0.62195   0.62192   0.84701   1.000
    O207    O    0.90882   0.62230   0.84720   1.000
    O208    O    0.62221   0.90885   0.84723   1.000
    O209    O    0.05360   0.53719   0.87165   1.000
    O210    O    0.53740   0.05359   0.87165   1.000
    O211    O    0.53731   0.53686   0.87167   1.000
    O212    O    0.66992   0.66992   0.90446   1.000
    O213    O    0.75593   0.66996   0.90455   1.000
    O214    O    0.66996   0.75598   0.90456   1.000
    O215    O    0.62210   0.62204   0.90871   1.000
    O216    O    0.58230   0.58228   0.91759   1.000
    O217    O    0.84713   0.62220   0.90889   1.000
    O218    O    0.91769   0.58244   0.91774   1.000
    O219    O    0.62223   0.84716   0.90892   1.000
    O220    O    0.58242   0.91771   0.91777   1.000
    O221    O    0.54018   0.99271   0.92703   1.000
    O222    O    0.49998   0.06570   0.93383   1.000
    O223    O    0.99271   0.54011   0.92702   1.000
    O224    O    0.06571   0.49982   0.93428   1.000
    O225    O    0.54011   0.53995   0.92697   1.000
    O226    O    0.49994   0.49963   0.93434   1.000
    O227    O    0.46255   0.12834   0.94590   1.000
    O228    O    0.12836   0.46232   0.94639   1.000
    O229    O    0.46255   0.46213   0.94651   1.000
    O230    O    0.27182   0.27184   0.27177   1.000
    O231    O    0.18477   0.27168   0.27161   1.000
    O232    O    0.72814   0.72815   0.72818   1.000
    O233    O    0.81520   0.72831   0.72833   1.000
loop_
    _geom_bond_atom_site_label_1
    _geom_bond_atom_site_label_2
    _geom_bond_distance
    _geom_bond_site_symmetry_2
    _ccdc_geom_bond_type
    C44    O106      0.54429      .   S
    C20    O106      0.54429      .   S
    C44    O107      0.69517      .   S
    C33    O107      0.69517      .   S
    C44    O108      0.70174  1_554   S
    C69    O108      0.70174      .   S
    C49    O109      0.54430      .   S
    C25    O109      0.54430      .   S
    C49    O110      0.69508      .   S
    C42    O110      0.69508      .   S
    C49    O111      0.70162  1_554   S
    C73    O111      0.70162      .   S
    C55    O112      0.54425      .   S
    C31    O112      0.54425      .   S
    C55    O113      0.69514      .   S
    C36    O113      0.69514      .   S
    C55    O114      0.70159  1_554   S
    C79    O114      0.70159      .   S
    C61    O115      0.70168      .   S
    C36    O115      0.70168  1_565   S
    C61    O116      0.74773      .   S
    C60    O116      0.74773      .   S
    C61    O117      0.70814      .   S
    C37    O117      0.70814  1_556   S
    C67    O118      0.70177      .   S
    C42    O118      0.70177  1_655   S
    C67    O119      0.74761      .   S
    C66    O119      0.74761      .   S
    C67    O120      0.70162      .   S
    C43    O120      0.70162  1_556   S
    C57    O121      0.70162      .   S
    C33    O121      0.70162      .   S
    C57    O122      0.74788      .   S
    C56    O122      0.74788      .   S
    C57    O123      0.70166      .   S
    C32    O123      0.70166  1_556   S
    C87    O124      0.63858      .   S
    C60    O124      0.63858      .   S
    C87    O125      0.98578      .   S
    C0     O125      0.98578      .   S
    C93    O126      0.63855      .   S
    C66    O126      0.63855      .   S
    C93    O127      0.98565      .   S
    C0     O127      0.98565      .   S
    C82    O128      0.63854      .   S
    C56    O128      0.63854      .   S
    C82    O129      0.98587      .   S
    C0     O129      0.98587      .   S
    C33    O130      0.54428      .   S
    C9     O130      0.54428      .   S
    C36    O131      0.54429      .   S
    C12    O131      0.54429      .   S
    C42    O132      0.54430      .   S
    C18    O132      0.54430      .   S
    C60    O133      0.63856      .   S
    C86    O133      0.63856      .   S
    C66    O134      0.63852      .   S
    C92    O134      0.63852      .   S
    C56    O135      0.63864      .   S
    C83    O135      0.63864      .   S
    C0     O136      0.98289      .   S
    C80    O136      0.98289      .   S
    C86    O137      0.98581      .   S
    C3     O137      0.98581      .   S
    C92    O138      0.98573      .   S
    C2     O138      0.98573      .   S
    C83    O139      0.98654      .   S
    C1     O139      0.98654      .   S
    C80    O140      0.98349      .   S
    C3     O140      0.98349      .   S
    C3     O141      0.98573      .   S
    C85    O141      0.98573      .   S
    C3     O142      0.98592      .   S
    C91    O142      0.98592      .   S
    C2     O143      0.98027      .   S
    C88    O143      0.98027      .   S
    C2     O144      0.98577      .   S
    C84    O144      0.98577      .   S
    C1     O145      0.98658      .   S
    C90    O145      0.98658      .   S
    C1     O146      0.98675      .   S
    C89    O146      0.98675      .   S
    C88    O147      0.64418      .   S
    C62    O147      0.64418      .   S
    C84    O148      0.63856      .   S
    C58    O148      0.63856      .   S
    C85    O149      0.63856      .   S
    C58    O149      0.63856      .   S
    C91    O150      0.57769      .   S
    C64    O150      0.57769      .   S
    C90    O151      0.65430      .   S
    C64    O151      0.65430      .   S
    C89    O152      0.63868      .   S
    C62    O152      0.63868      .   S
    C64    O153      0.80856      .   S
    C65    O153      0.80856      .   S
    C58    O154      0.74764      .   S
    C59    O154      0.74764      .   S
    C62    O155      0.74804      .   S
    C63    O155      0.74804      .   S
    C59    O156      0.70165      .   S
    C35    O156      0.70165  1_565   S
    C59    O157      0.70177      .   S
    C34    O157      0.70177  1_655   S
    C65    O158      0.70174      .   S
    C41    O158      0.70174  1_565   S
    C65    O159      0.70159      .   S
    C40    O159      0.70159      .   S
    C63    O160      0.70189      .   S
    C38    O160      0.70189  1_655   S
    C63    O161      0.70161      .   S
    C39    O161      0.70161      .   S
    C17    O162      0.54435      .   S
    C41    O162      0.54435      .   S
    C14    O163      0.54488      .   S
    C38    O163      0.54488      .   S
    C11    O164      0.54430      .   S
    C35    O164      0.54430      .   S
    C10    O165      0.54429      .   S
    C34    O165      0.54429      .   S
    C15    O166      0.54431      .   S
    C39    O166      0.54431      .   S
    C16    O167      0.54430      .   S
    C40    O167      0.54430      .   S
    C41    O168      0.69517      .   S
    C51    O168      0.69517      .   S
    C35    O169      0.69510      .   S
    C47    O169      0.69510      .   S
    C38    O170      0.69512      .   S
    C52    O170      0.69512      .   S
    C34    O171      0.69511      .   S
    C46    O171      0.69511      .   S
    C39    O172      0.69524      .   S
    C53    O172      0.69524      .   S
    C40    O173      0.69523      .   S
    C50    O173      0.69523      .   S
    C51    O174      0.54430      .   S
    C27    O174      0.54430      .   S
    C51    O175      0.70162      .   S
    C75    O175      0.70162      .   S
    C52    O176      0.54430      .   S
    C28    O176      0.54430      .   S
    C52    O177      0.70173      .   S
    C77    O177      0.70173      .   S
    C47    O178      0.54429      .   S
    C23    O178      0.54429      .   S
    C47    O179      0.70177  1_455   S
    C71    O179      0.70177      .   S
    C53    O180      0.54432      .   S
    C29    O180      0.54432      .   S
    C53    O181      0.70190  1_455   S
    C77    O181      0.70190      .   S
    C46    O182      0.54430      .   S
    C22    O182      0.54430      .   S
    C46    O183      0.70165  1_545   S
    C71    O183      0.70165      .   S
    C50    O184      0.54426      .   S
    C26    O184      0.54426      .   S
    C50    O185      0.70175  1_545   S
    C75    O185      0.70175      .   S
    C77    O186      0.74804      .   S
    C76    O186      0.74804      .   S
    C75    O187      0.74146      .   S
    C74    O187      0.74146      .   S
    C71    O188      0.74764      .   S
    C70    O188      0.74764      .   S
    C74    O189      0.63755      .   S
    C101   O189      0.63755      .   S
    C74    O190      0.64558      .   S
    C100   O190      0.64558      .   S
    C76    O191      0.63868      .   S
    C102   O191      0.63868      .   S
    C76    O192      0.63860      .   S
    C103   O192      0.63860      .   S
    C70    O193      0.63856      .   S
    C96    O193      0.63856      .   S
    C70    O194      0.63856      .   S
    C97    O194      0.63856      .   S
    C102   O195      0.98676      .   S
    C5     O195      0.98676      .   S
    C101   O196      0.98661      .   S
    C5     O196      0.98661      .   S
    C100   O197      0.98598      .   S
    C6     O197      0.98598      .   S
    C103   O198      0.98609      .   S
    C7     O198      0.98609      .   S
    C96    O199      0.98573      .   S
    C6     O199      0.98573      .   S
    C97    O200      0.98577      .   S
    C7     O200      0.98577      .   S
    C5     O201      0.98651      .   S
    C95    O201      0.98651      .   S
    C7     O202      0.98573      .   S
    C98    O202      0.98573      .   S
    C6     O203      0.98350      .   S
    C81    O203      0.98350      .   S
    C6     O204      0.98580      .   S
    C104   O204      0.98580      .   S
    C81    O205      0.98311      .   S
    C4     O205      0.98311      .   S
    C95    O206      0.63855      .   S
    C68    O206      0.63855      .   S
    C98    O207      0.63859      .   S
    C72    O207      0.63859      .   S
    C104   O208      0.63856      .   S
    C78    O208      0.63856      .   S
    C24    O209      0.54430      .   S
    C48    O209      0.54430      .   S
    C30    O210      0.54429      .   S
    C54    O210      0.54429      .   S
    C21    O211      0.54436      .   S
    C45    O211      0.54436      .   S
    C4     O212      0.98576      .   S
    C94    O212      0.98576      .   S
    C4     O213      0.98597      .   S
    C99    O213      0.98597      .   S
    C4     O214      0.98610      .   S
    C105   O214      0.98610      .   S
    C68    O215      0.63863      .   S
    C94    O215      0.63863      .   S
    C68    O216      0.74788      .   S
    C69    O216      0.74788      .   S
    C72    O217      0.63855      .   S
    C99    O217      0.63855      .   S
    C72    O218      0.74761      .   S
    C73    O218      0.74761      .   S
    C78    O219      0.63858      .   S
    C105   O219      0.63858      .   S
    C78    O220      0.74773      .   S
    C79    O220      0.74773      .   S
    C54    O221      0.70167  1_545   S
    C79    O221      0.70167      .   S
    C54    O222      0.68931      .   S
    C37    O222      0.68931      .   S
    C48    O223      0.70177  1_455   S
    C73    O223      0.70177      .   S
    C48    O224      0.69508      .   S
    C43    O224      0.69508      .   S
    C45    O225      0.70153      .   S
    C69    O225      0.70153      .   S
    C45    O226      0.69517      .   S
    C32    O226      0.69517      .   S
    C13    O227      0.54381      .   S
    C37    O227      0.54381      .   S
    C19    O228      0.54430      .   S
    C43    O228      0.54430      .   S
    C8     O229      0.54429      .   S
    C32    O229      0.54429      .   S
    C80    O230      0.98457      .   S
    C1     O230      0.98457      .   S
    C80    O231      0.98352      .   S
    C2     O231      0.98352      .   S
    C81    O232      0.98390      .   S
    C5     O232      0.98390      .   S
    C81    O233      0.98352      .   S
    C7     O233      0.98352      .   S
