# CIF file generated by openbabel 2.4.90, see http://openbabel.sf.net
data_I
_chemical_name_common ''
_cell_length_a 13.69
_cell_length_b 16.701
_cell_length_c 16.701
_cell_angle_alpha 87.613
_cell_angle_beta 78.271
_cell_angle_gamma 78.214
_space_group_name_H-M_alt 'P 1'
_space_group_name_Hall 'P 1'
loop_
    _symmetry_equiv_pos_as_xyz
    x,y,z
loop_
    _atom_site_label
    _atom_site_type_symbol
    _atom_site_fract_x
    _atom_site_fract_y
    _atom_site_fract_z
    _atom_site_occupancy
    Zr0     Zr   0.45659   0.89289   0.38036   1.000
    Zr1     Zr   0.95660   0.89289   0.38036   1.000
    Zr2     Zr   0.09267   0.60666   0.11965   1.000
    Zr3     Zr   0.59268   0.60666   0.11965   1.000
    Zr4     Zr   0.14647   0.11970   0.89290   1.000
    Zr5     Zr   0.64648   0.11970   0.89290   1.000
    Zr6     Zr   0.15294   0.38039   0.60681   1.000
    Zr7     Zr   0.65295   0.38039   0.60681   1.000
    Zr8     Zr   0.04342   0.10711   0.61961   1.000
    Zr9     Zr   0.54343   0.10711   0.61961   1.000
    Zr10    Zr   0.40735   0.39334   0.88031   1.000
    Zr11    Zr   0.90736   0.39334   0.88031   1.000
    Zr12    Zr   0.35355   0.88030   0.10702   1.000
    Zr13    Zr   0.85356   0.88030   0.10702   1.000
    Zr14    Zr   0.34707   0.61961   0.39316   1.000
    Zr15    Zr   0.84708   0.61961   0.39316   1.000
    N16     N    0.25001   0.99971   0.99984   1.000
    O17     O    0.32427   0.96782   0.16892   1.000
    O18     O    0.17574   0.03189   0.83090   1.000
    N19     N    0.68742   0.74997   0.25000   1.000
    O20     O    0.60737   0.79971   0.29504   1.000
    O21     O    0.74510   0.79501   0.20026   1.000
    O22     O    0.74271   0.70492   0.29981   1.000
    O23     O    0.65457   0.70014   0.20495   1.000
    N24     N    0.00001   0.99985   0.49998   1.000
    O25     O    0.05800   0.16893   0.53193   1.000
    O26     O    0.94203   0.83092   0.46804   1.000
    N27     N    0.31260   0.25002   0.74992   1.000
    O28     O    0.39265   0.20029   0.70491   1.000
    O29     O    0.25731   0.29508   0.70014   1.000
    O30     O    0.34546   0.29986   0.79500   1.000
    O31     O    0.25493   0.20498   0.79968   1.000
    N32     N    0.75002   0.99971   0.99983   1.000
    O33     O    0.67575   0.03189   0.83090   1.000
    O34     O    0.82428   0.96782   0.16891   1.000
    N35     N    0.50001   0.99985   0.49998   1.000
    O36     O    0.55800   0.16893   0.53193   1.000
    O37     O    0.44202   0.83092   0.46804   1.000
    N38     N    0.25001   0.50000   0.99969   1.000
    O39     O    0.40853   0.33104   0.96780   1.000
    O40     O    0.09150   0.66896   0.03186   1.000
    N41     N    0.81261   0.25002   0.74992   1.000
    O42     O    0.75494   0.20498   0.79968   1.000
    O43     O    0.84546   0.29986   0.79500   1.000
    O44     O    0.89266   0.20029   0.70491   1.000
    O45     O    0.75732   0.29508   0.70014   1.000
    N46     N    0.25001   0.50000   0.49998   1.000
    O47     O    0.10790   0.46807   0.66894   1.000
    O48     O    0.39212   0.53192   0.33102   1.000
    N49     N    0.18742   0.74997   0.25000   1.000
    O50     O    0.24509   0.79501   0.20026   1.000
    O51     O    0.15456   0.70014   0.20495   1.000
    O52     O    0.10737   0.79971   0.29504   1.000
    O53     O    0.24270   0.70492   0.29981   1.000
    N54     N    0.75001   0.50000   0.49998   1.000
    O55     O    0.60790   0.46807   0.66894   1.000
    O56     O    0.89212   0.53193   0.33102   1.000
    N57     N    0.75002   0.50000   0.99969   1.000
    O58     O    0.90853   0.33104   0.96780   1.000
    O59     O    0.59150   0.66896   0.03186   1.000
    O60     O    0.19495   0.03468   0.94221   1.000
    O61     O    0.46254   0.94221   0.46519   1.000
    O62     O    0.66601   0.55759   0.03467   1.000
    O63     O    0.18369   0.46521   0.55763   1.000
    O64     O    0.33402   0.44241   0.96500   1.000
    O65     O    0.31633   0.53479   0.44233   1.000
    O66     O    0.80508   0.96503   0.05760   1.000
    O67     O    0.81633   0.53479   0.44233   1.000
    O68     O    0.96254   0.94221   0.46519   1.000
    O69     O    0.53749   0.05764   0.53478   1.000
    O70     O    0.68369   0.46521   0.55763   1.000
    O71     O    0.30507   0.96503   0.05760   1.000
    O72     O    0.69495   0.03468   0.94221   1.000
    O73     O    0.03748   0.05764   0.53478   1.000
    O74     O    0.16600   0.55759   0.03467   1.000
    O75     O    0.83402   0.44241   0.96500   1.000
loop_
    _geom_bond_atom_site_label_1
    _geom_bond_atom_site_label_2
    _geom_bond_distance
    _geom_bond_site_symmetry_2
    _ccdc_geom_bond_type
    N16    O17       3.17991  1_556   S
    Zr0    O17       4.31557      .   S
    N16    O18       3.17794  1_565   S
    Zr8    O18       4.31416      .   S
    N19    O20       1.34228      .   S
    Zr0    O20       2.52778      .   S
    N19    O21       1.34287      .   S
    Zr13   O21       2.52927      .   S
    N19    O22       1.34240      .   S
    Zr15   O22       2.52815      .   S
    N19    O23       1.34309      .   S
    Zr3    O23       2.53004      .   S
    N24    O25       3.17841  1_565   S
    Zr6    O25       4.31611      .   S
    N24    O26       3.17610  1_455   S
    Zr15   O26       4.31393      .   S
    N27    O28       1.34212      .   S
    Zr9    O28       2.52763      .   S
    N27    O29       1.34213      .   S
    Zr6    O29       2.52788      .   S
    N27    O30       1.34331      .   S
    Zr10   O30       2.53022      .   S
    N27    O31       1.34295      .   S
    Zr4    O31       2.52916      .   S
    N32    O33       3.17791  1_565   S
    Zr9    O33       4.31413      .   S
    N32    O34       3.17994  1_556   S
    Zr1    O34       4.31560      .   S
    N35    O36       3.17844  1_565   S
    Zr7    O36       4.31614      .   S
    N35    O37       3.17612      .   S
    Zr14   O37       4.31395      .   S
    N38    O39       3.17952      .   S
    Zr5    O39       4.31834      .   S
    N38    O40       3.17983  1_556   S
    Zr13   O40       4.31901  1_655   S
    N41    O42       1.34295      .   S
    Zr5    O42       2.52915      .   S
    N41    O43       1.34331      .   S
    Zr11   O43       2.53022      .   S
    N41    O44       1.34209      .   S
    Zr8    O44       2.52753  1_455   S
    N41    O45       1.34213      .   S
    Zr7    O45       2.52788      .   S
    N46    O47       3.17784      .   S
    Zr11   O47       4.31844  1_655   S
    N46    O48       3.17781      .   S
    Zr3    O48       4.31848      .   S
    N49    O50       1.34287      .   S
    Zr12   O50       2.52928      .   S
    N49    O51       1.34308      .   S
    Zr2    O51       2.53004      .   S
    N49    O52       1.34225      .   S
    Zr1    O52       2.52769  1_655   S
    N49    O53       1.34241      .   S
    Zr14   O53       2.52815      .   S
    N54    O55       3.17783      .   S
    Zr10   O55       4.31849      .   S
    N54    O56       3.17782      .   S
    Zr2    O56       4.31844  1_455   S
    N57    O58       3.17951      .   S
    Zr4    O58       4.31826  1_455   S
    N57    O59       3.17984  1_556   S
    Zr12   O59       4.31909      .   S
    Zr4    O60       1.69550      .   S
    N16    O60       1.37979  1_565   S
    Zr0    O61       1.69226      .   S
    N35    O61       1.37742      .   S
    Zr3    O62       1.69560      .   S
    N57    O62       1.38234  1_556   S
    Zr6    O63       1.69249      .   S
    N46    O63       1.37933      .   S
    Zr10   O64       1.69202      .   S
    N38    O64       1.38095      .   S
    Zr14   O65       1.69243      .   S
    N46    O65       1.37925      .   S
    Zr13   O66       1.69296      .   S
    N32    O66       1.38025  1_556   S
    Zr15   O67       1.69246      .   S
    N54    O67       1.37928      .   S
    Zr1    O68       1.69225      .   S
    N24    O68       1.37738  1_455   S
    Zr9    O69       1.69358      .   S
    N35    O69       1.37937  1_565   S
    Zr7    O70       1.69246      .   S
    N54    O70       1.37930      .   S
    Zr12   O71       1.69294      .   S
    N16    O71       1.38022  1_556   S
    Zr5    O72       1.69549      .   S
    N32    O72       1.37976  1_565   S
    Zr8    O73       1.69356      .   S
    N24    O73       1.37933  1_565   S
    Zr2    O74       1.69562      .   S
    N38    O74       1.38233  1_556   S
    Zr11   O75       1.69205      .   S
    N57    O75       1.38095      .   S
