# CIF file generated by openbabel 2.4.90, see http://openbabel.sf.net
data_I
_chemical_name_common ''
_cell_length_a 13.69
_cell_length_b 16.701
_cell_length_c 16.701
_cell_angle_alpha 87.613
_cell_angle_beta 78.271
_cell_angle_gamma 78.214
_space_group_name_H-M_alt 'P 1'
_space_group_name_Hall 'P 1'
loop_
    _symmetry_equiv_pos_as_xyz
    x,y,z
loop_
    _atom_site_label
    _atom_site_type_symbol
    _atom_site_fract_x
    _atom_site_fract_y
    _atom_site_fract_z
    _atom_site_occupancy
    Zr0     Zr   0.45659   0.89289   0.38036   1.000
    Zr1     Zr   0.95660   0.89289   0.38036   1.000
    Zr2     Zr   0.09267   0.60666   0.11965   1.000
    Zr3     Zr   0.59268   0.60666   0.11965   1.000
    Zr4     Zr   0.14647   0.11970   0.89290   1.000
    Zr5     Zr   0.64648   0.11970   0.89290   1.000
    Zr6     Zr   0.15294   0.38039   0.60681   1.000
    Zr7     Zr   0.65295   0.38039   0.60681   1.000
    Zr8     Zr   0.04342   0.10711   0.61961   1.000
    Zr9     Zr   0.54343   0.10711   0.61961   1.000
    Zr10    Zr   0.40735   0.39334   0.88031   1.000
    Zr11    Zr   0.90736   0.39334   0.88031   1.000
    Zr12    Zr   0.35355   0.88030   0.10702   1.000
    Zr13    Zr   0.85356   0.88030   0.10702   1.000
    Zr14    Zr   0.34707   0.61961   0.39316   1.000
    Zr15    Zr   0.84708   0.61961   0.39316   1.000
    N16     N    0.25001   0.99971   0.99984   1.000
    O17     O    0.32427   0.96782   0.16892   1.000
    O18     O    0.17574   0.03189   0.83090   1.000
    O19     O    0.16996   0.04385   0.93153   1.000
    O20     O    0.21993   0.02551   0.95290   1.000
    O21     O    0.33006   0.95586   0.06828   1.000
    O22     O    0.28008   0.97420   0.04691   1.000
    N23     N    0.68742   0.74997   0.25000   1.000
    O24     O    0.60737   0.79971   0.29504   1.000
    O25     O    0.74510   0.79501   0.20026   1.000
    O26     O    0.74271   0.70492   0.29981   1.000
    O27     O    0.65457   0.70014   0.20495   1.000
    N28     N    0.00001   0.99985   0.49998   1.000
    O29     O    0.05800   0.16893   0.53193   1.000
    O30     O    0.01712   0.04695   0.52560   1.000
    O31     O    0.94217   0.93152   0.45601   1.000
    O32     O    0.05785   0.06833   0.54395   1.000
    O33     O    0.94203   0.83092   0.46804   1.000
    O34     O    0.98291   0.95290   0.47437   1.000
    N35     N    0.31260   0.25002   0.74992   1.000
    O36     O    0.39265   0.20029   0.70491   1.000
    O37     O    0.25731   0.29508   0.70014   1.000
    O38     O    0.34546   0.29986   0.79500   1.000
    O39     O    0.25493   0.20498   0.79968   1.000
    N40     N    0.75002   0.99971   0.99983   1.000
    O41     O    0.83007   0.95586   0.06828   1.000
    O42     O    0.67575   0.03189   0.83090   1.000
    O43     O    0.66997   0.04385   0.93152   1.000
    O44     O    0.71994   0.02551   0.95289   1.000
    O45     O    0.82428   0.96782   0.16891   1.000
    O46     O    0.78009   0.97420   0.04691   1.000
    N47     N    0.50001   0.99985   0.49998   1.000
    O48     O    0.48290   0.95290   0.47437   1.000
    O49     O    0.55800   0.16893   0.53193   1.000
    O50     O    0.44202   0.83092   0.46804   1.000
    O51     O    0.55786   0.06833   0.54395   1.000
    O52     O    0.51712   0.04695   0.52560   1.000
    O53     O    0.44217   0.93152   0.45601   1.000
    N54     N    0.25001   0.50000   0.99969   1.000
    O55     O    0.40853   0.33104   0.96780   1.000
    O56     O    0.13568   0.56830   0.04385   1.000
    O57     O    0.09150   0.66896   0.03186   1.000
    O58     O    0.36435   0.43170   0.95582   1.000
    O59     O    0.30369   0.45311   0.97418   1.000
    O60     O    0.19633   0.54688   0.02549   1.000
    N61     N    0.81261   0.25002   0.74992   1.000
    O62     O    0.75494   0.20498   0.79968   1.000
    O63     O    0.84546   0.29986   0.79500   1.000
    O64     O    0.89266   0.20029   0.70491   1.000
    O65     O    0.75732   0.29508   0.70014   1.000
    N66     N    0.25001   0.50000   0.49998   1.000
    O67     O    0.10790   0.46807   0.66894   1.000
    O68     O    0.34203   0.54397   0.43163   1.000
    O69     O    0.15799   0.45603   0.56834   1.000
    O70     O    0.29063   0.52561   0.45304   1.000
    O71     O    0.20939   0.47439   0.54692   1.000
    O72     O    0.39212   0.53192   0.33102   1.000
    N73     N    0.18742   0.74997   0.25000   1.000
    O74     O    0.24509   0.79501   0.20026   1.000
    O75     O    0.15456   0.70014   0.20495   1.000
    O76     O    0.10737   0.79971   0.29504   1.000
    O77     O    0.24270   0.70492   0.29981   1.000
    N78     N    0.75001   0.50000   0.49998   1.000
    O79     O    0.60790   0.46807   0.66894   1.000
    O80     O    0.79064   0.52561   0.45304   1.000
    O81     O    0.70939   0.47439   0.54692   1.000
    O82     O    0.84203   0.54397   0.43163   1.000
    O83     O    0.65799   0.45603   0.56834   1.000
    O84     O    0.89212   0.53193   0.33102   1.000
    N85     N    0.75002   0.50000   0.99969   1.000
    O86     O    0.80369   0.45311   0.97418   1.000
    O87     O    0.86435   0.43170   0.95582   1.000
    O88     O    0.90853   0.33104   0.96780   1.000
    O89     O    0.69634   0.54689   0.02549   1.000
    O90     O    0.63568   0.56830   0.04385   1.000
    O91     O    0.59150   0.66896   0.03186   1.000
loop_
    _geom_bond_atom_site_label_1
    _geom_bond_atom_site_label_2
    _geom_bond_distance
    _geom_bond_site_symmetry_2
    _ccdc_geom_bond_type
    N16    O17       3.17991  1_556   S
    Zr0    O17       4.31557      .   S
    N16    O18       3.17794  1_565   S
    Zr8    O18       4.31416      .   S
    N16    O19       1.77600  1_565   S
    Zr4    O19       1.40508      .   S
    N16    O20       1.00020  1_565   S
    Zr4    O20       2.03030      .   S
    N16    O21       1.77643  1_556   S
    Zr12   O21       1.40193      .   S
    N16    O22       1.00062  1_556   S
    Zr12   O22       2.02820      .   S
    N23    O24       1.34228      .   S
    Zr0    O24       2.52778      .   S
    N23    O25       1.34287      .   S
    Zr13   O25       2.52927      .   S
    N23    O26       1.34240      .   S
    Zr15   O26       2.52815      .   S
    N23    O27       1.34309      .   S
    Zr3    O27       2.53004      .   S
    N28    O29       3.17841  1_565   S
    Zr6    O29       4.31611      .   S
    N28    O30       1.00034  1_565   S
    Zr8    O30       2.02809      .   S
    N28    O31       1.77315  1_455   S
    Zr1    O31       1.40216      .   S
    N28    O32       1.77500  1_565   S
    Zr8    O32       1.40333      .   S
    N28    O33       3.17610  1_455   S
    Zr15   O33       4.31393      .   S
    N28    O34       0.99825  1_455   S
    Zr1    O34       2.02670      .   S
    N35    O36       1.34212      .   S
    Zr9    O36       2.52763      .   S
    N35    O37       1.34213      .   S
    Zr6    O37       2.52788      .   S
    N35    O38       1.34331      .   S
    Zr10   O38       2.53022      .   S
    N35    O39       1.34295      .   S
    Zr4    O39       2.52916      .   S
    N40    O41       1.77646  1_556   S
    Zr13   O41       1.40195      .   S
    N40    O42       3.17791  1_565   S
    Zr9    O42       4.31413      .   S
    N40    O43       1.77597  1_565   S
    Zr5    O43       1.40506      .   S
    N40    O44       1.00017  1_565   S
    Zr5    O44       2.03028      .   S
    N40    O45       3.17994  1_556   S
    Zr1    O45       4.31560      .   S
    N40    O46       1.00065  1_556   S
    Zr13   O46       2.02822      .   S
    N47    O48       0.99828      .   S
    Zr0    O48       2.02672      .   S
    N47    O49       3.17844  1_565   S
    Zr7    O49       4.31614      .   S
    N47    O50       3.17612      .   S
    Zr14   O50       4.31395      .   S
    N47    O51       1.77504  1_565   S
    Zr9    O51       1.40334      .   S
    N47    O52       1.00037  1_565   S
    Zr9    O52       2.02812      .   S
    N47    O53       1.77319      .   S
    Zr0    O53       1.40217      .   S
    N54    O55       3.17952      .   S
    Zr5    O55       4.31834      .   S
    N54    O56       1.77943  1_556   S
    Zr2    O56       1.40362      .   S
    N54    O57       3.17983  1_556   S
    Zr13   O57       4.31901  1_655   S
    N54    O58       1.77815      .   S
    Zr10   O58       1.39954      .   S
    N54    O59       1.00005      .   S
    Zr10   O59       2.02856      .   S
    N54    O60       1.00160  1_556   S
    Zr2    O60       2.03174      .   S
    N61    O62       1.34295      .   S
    Zr5    O62       2.52915      .   S
    N61    O63       1.34331      .   S
    Zr11   O63       2.53022      .   S
    N61    O64       1.34209      .   S
    Zr8    O64       2.52753  1_455   S
    N61    O65       1.34213      .   S
    Zr7    O65       2.52788      .   S
    N66    O67       3.17784      .   S
    Zr11   O67       4.31844  1_655   S
    N66    O68       1.77562      .   S
    Zr14   O68       1.40118      .   S
    N66    O69       1.77567      .   S
    Zr6    O69       1.40123      .   S
    N66    O70       0.99935      .   S
    Zr14   O70       2.02786      .   S
    N66    O71       0.99946      .   S
    Zr6    O71       2.02791      .   S
    N66    O72       3.17781      .   S
    Zr3    O72       4.31848      .   S
    N73    O74       1.34287      .   S
    Zr12   O74       2.52928      .   S
    N73    O75       1.34308      .   S
    Zr2    O75       2.53004      .   S
    N73    O76       1.34225      .   S
    Zr1    O76       2.52769  1_655   S
    N73    O77       1.34241      .   S
    Zr14   O77       2.52815      .   S
    N78    O79       3.17783      .   S
    Zr10   O79       4.31849      .   S
    N78    O80       0.99939      .   S
    Zr15   O80       2.02788      .   S
    N78    O81       0.99942      .   S
    Zr7    O81       2.02788      .   S
    N78    O82       1.77563      .   S
    Zr15   O82       1.40119      .   S
    N78    O83       1.77566      .   S
    Zr7    O83       1.40122      .   S
    N78    O84       3.17782      .   S
    Zr2    O84       4.31844  1_455   S
    N85    O86       1.00006      .   S
    Zr11   O86       2.02858      .   S
    N85    O87       1.77814      .   S
    Zr11   O87       1.39956      .   S
    N85    O88       3.17951      .   S
    Zr4    O88       4.31826  1_455   S
    N85    O89       1.00159  1_556   S
    Zr3    O89       2.03172      .   S
    N85    O90       1.77944  1_556   S
    Zr3    O90       1.40360      .   S
    N85    O91       3.17984  1_556   S
    Zr12   O91       4.31909      .   S
