# CIF file generated by openbabel 2.4.90, see http://openbabel.sf.net
data_I
_chemical_name_common ''
_cell_length_a 13.449
_cell_length_b 13.571
_cell_length_c 13.962
_cell_angle_alpha 77.615
_cell_angle_beta 65.011
_cell_angle_gamma 63.881
_space_group_name_H-M_alt 'P 1'
_space_group_name_Hall 'P 1'
loop_
    _symmetry_equiv_pos_as_xyz
    x,y,z
loop_
    _atom_site_label
    _atom_site_type_symbol
    _atom_site_fract_x
    _atom_site_fract_y
    _atom_site_fract_z
    _atom_site_occupancy
    H0      H    0.58520   0.66089   0.97683   1.000
    H1      H    0.57812   0.94744   0.10025   1.000
    H2      H    0.52439   0.63489   0.33540   1.000
    H3      H    0.48845   0.80621   0.40251   1.000
    H4      H    0.64024   0.47890   0.25874   1.000
    H5      H    0.62462   0.77976   0.01906   1.000
    H6      H    0.68859   0.31146   0.17814   1.000
    H7      H    0.64089   0.48435   0.90656   1.000
    H8      H    0.41487   0.33904   0.02310   1.000
    H9      H    0.42190   0.05252   0.89971   1.000
    H10     H    0.47557   0.36509   0.66456   1.000
    H11     H    0.51152   0.19376   0.59745   1.000
    H12     H    0.35970   0.52108   0.74126   1.000
    H13     H    0.37541   0.22020   0.98090   1.000
    H14     H    0.31133   0.68851   0.82180   1.000
    H15     H    0.35917   0.51558   0.09340   1.000
    C16     C    0.58096   0.68958   0.16983   1.000
    C17     C    0.60910   0.58671   0.12494   1.000
    C18     C    0.60955   0.58553   0.02430   1.000
    C19     C    0.56975   0.87523   0.14949   1.000
    C20     C    0.54042   0.70079   0.27927   1.000
    C21     C    0.51833   0.79776   0.31771   1.000
    C22     C    0.63835   0.48525   0.18034   1.000
    C23     C    0.59499   0.78075   0.10464   1.000
    C24     C    0.66771   0.38991   0.13404   1.000
    C25     C    0.64063   0.48575   0.98462   1.000
    C26     C    0.41904   0.31039   0.83013   1.000
    C27     C    0.39088   0.41326   0.87503   1.000
    C28     C    0.39048   0.41441   0.97565   1.000
    C29     C    0.43025   0.12474   0.85047   1.000
    C30     C    0.45954   0.29919   0.72069   1.000
    C31     C    0.48163   0.20222   0.68225   1.000
    C32     C    0.36160   0.51473   0.81965   1.000
    C33     C    0.40502   0.21922   0.89532   1.000
    C34     C    0.33223   0.61006   0.86597   1.000
    C35     C    0.35938   0.51419   0.01535   1.000
    N36     N    0.53258   0.88505   0.25450   1.000
    N37     N    0.67066   0.38795   0.03680   1.000
    N38     N    0.46740   0.11492   0.74546   1.000
    N39     N    0.32936   0.61200   0.96310   1.000
loop_
    _geom_bond_atom_site_label_1
    _geom_bond_atom_site_label_2
    _geom_bond_distance
    _geom_bond_site_symmetry_2
    _ccdc_geom_bond_type
    C35    H15       1.09269      .   S
    C35    N39       1.34859  1_554   S
    C35    C28       1.39397  1_554   S
    H5     C23       1.08928      .   S
    H8     C28       1.09097  1_554   S
    C18    C17       1.40609      .   S
    C18    H0        1.09097  1_554   S
    C18    C25       1.39396  1_554   S
    N37    C24       1.34710      .   S
    N37    C25       1.34807  1_554   S
    H1     C19       1.09013      .   S
    C23    C19       1.39036      .   S
    C23    C16       1.40431      .   S
    C17    C16       1.48145      .   S
    C17    C22       1.40440      .   S
    C24    H6        1.09220      .   S
    C24    C22       1.39326      .   S
    C19    N36       1.35026      .   S
    C16    C20       1.40642      .   S
    C22    H4        1.08965      .   S
    N36    C21       1.35185      .   S
    C20    C21       1.39002      .   S
    C20    H2        1.08945      .   S
    C21    H3        1.09183      .   S
    H11    C31       1.09184      .   S
    H10    C30       1.08948      .   S
    C31    C30       1.39002      .   S
    C31    N38       1.35185      .   S
    C30    C26       1.40645      .   S
    H12    C32       1.08961      .   S
    N38    C29       1.35028      .   S
    C32    C34       1.39329      .   S
    C32    C27       1.40439      .   S
    H14    C34       1.09275      .   S
    C26    C27       1.48143      .   S
    C26    C33       1.40433      .   S
    C29    C33       1.39035      .   S
    C29    H9        1.09015      .   S
    C34    N39       1.34589      .   S
    C27    C28       1.40603      .   S
    C33    H13       1.08931      .   S
    H7     C25       1.09264      .   S
