# CIF file generated by openbabel 2.4.90, see http://openbabel.sf.net
data_I
_chemical_name_common ''
_cell_length_a 13.449
_cell_length_b 13.571
_cell_length_c 13.962
_cell_angle_alpha 77.615
_cell_angle_beta 65.011
_cell_angle_gamma 63.881
_space_group_name_H-M_alt 'P 1'
_space_group_name_Hall 'P 1'
loop_
    _symmetry_equiv_pos_as_xyz
    x,y,z
loop_
    _atom_site_label
    _atom_site_type_symbol
    _atom_site_fract_x
    _atom_site_fract_y
    _atom_site_fract_z
    _atom_site_occupancy
    La0     La   0.51951   0.92088   0.66191   1.000
    H1      H    0.14833   0.47616   0.56410   1.000
    H2      H    0.33831   0.32053   0.48380   1.000
    H3      H    0.64566   0.18028   0.10530   1.000
    H4      H    0.84207   0.17111   0.98317   1.000
    H5      H    0.58520   0.66089   0.97683   1.000
    H6      H    0.57812   0.94744   0.10025   1.000
    H7      H    0.99065   0.84371   0.11448   1.000
    H8      H    0.27759   0.97553   0.56002   1.000
    H9      H    0.52439   0.63489   0.33540   1.000
    H10     H    0.78491   0.86983   0.23507   1.000
    H11     H    0.48845   0.80621   0.40251   1.000
    H12     H    0.64024   0.47890   0.25874   1.000
    H13     H    0.62462   0.77976   0.01906   1.000
    H14     H    0.08782   0.95456   0.62908   1.000
    H15     H    0.68859   0.31146   0.17814   1.000
    H16     H    0.01151   0.40443   0.36846   1.000
    H17     H    0.64089   0.48435   0.90656   1.000
    H18     H    0.20894   0.25504   0.29460   1.000
    H19     H    0.26714   0.06610   0.26044   1.000
    H20     H    0.07444   0.05002   0.31651   1.000
    H21     H    0.85148   0.52333   0.43640   1.000
    H22     H    0.66154   0.67909   0.51660   1.000
    H23     H    0.35438   0.81966   0.89471   1.000
    H24     H    0.15798   0.82883   0.01684   1.000
    H25     H    0.41487   0.33904   0.02310   1.000
    H26     H    0.42190   0.05252   0.89971   1.000
    H27     H    0.00940   0.15625   0.88557   1.000
    H28     H    0.72279   0.02378   0.43973   1.000
    H29     H    0.47557   0.36509   0.66456   1.000
    H30     H    0.21514   0.13012   0.76490   1.000
    H31     H    0.51152   0.19376   0.59745   1.000
    La32    La   0.48051   0.07907   0.33808   1.000
    H33     H    0.35970   0.52108   0.74126   1.000
    H34     H    0.37541   0.22020   0.98090   1.000
    H35     H    0.91264   0.04461   0.37062   1.000
    H36     H    0.31133   0.68851   0.82180   1.000
    H37     H    0.98888   0.59622   0.63088   1.000
    H38     H    0.35917   0.51558   0.09340   1.000
    H39     H    0.79139   0.74548   0.70478   1.000
    H40     H    0.73247   0.93465   0.73965   1.000
    H41     H    0.92506   0.95095   0.68362   1.000
    C42     C    0.15531   0.42933   0.50574   1.000
    C43     C    0.58096   0.68958   0.16983   1.000
    C44     C    0.93871   0.00524   0.03611   1.000
    C45     C    0.05872   0.45479   0.47612   1.000
    C46     C    0.26280   0.34188   0.46121   1.000
    C47     C    0.72424   0.10673   0.10586   1.000
    C48     C    0.60910   0.58671   0.12494   1.000
    C49     C    0.83712   0.10005   0.03570   1.000
    C50     C    0.60955   0.58553   0.02430   1.000
    C51     C    0.56975   0.87523   0.14949   1.000
    C52     C    0.91768   0.92055   0.10897   1.000
    C53     C    0.22939   0.99292   0.50830   1.000
    C54     C    0.54042   0.70079   0.27927   1.000
    C55     C    0.80187   0.93404   0.17674   1.000
    C56     C    0.05879   0.00386   0.48042   1.000
    C57     C    0.51833   0.79776   0.31771   1.000
    C58     C    0.63835   0.48525   0.18034   1.000
    C59     C    0.59499   0.78075   0.10464   1.000
    C60     C    0.12140   0.98116   0.54670   1.000
    C61     C    0.66771   0.38991   0.13404   1.000
    C62     C    0.07994   0.38987   0.39809   1.000
    C63     C    0.64063   0.48575   0.98462   1.000
    C64     C    0.19041   0.30455   0.35682   1.000
    C65     C    0.22296   0.04287   0.34210   1.000
    C66     C    0.11449   0.03350   0.37464   1.000
    C67     C    0.84463   0.57045   0.49453   1.000
    C68     C    0.41904   0.31039   0.83013   1.000
    C69     C    0.06133   0.99471   0.96392   1.000
    C70     C    0.94137   0.54528   0.52384   1.000
    C71     C    0.73715   0.65793   0.53902   1.000
    C72     C    0.27580   0.89321   0.89416   1.000
    C73     C    0.39088   0.41326   0.87503   1.000
    C74     C    0.16293   0.89989   0.96426   1.000
    C75     C    0.39048   0.41441   0.97565   1.000
    C76     C    0.43025   0.12474   0.85047   1.000
    C77     C    0.08236   0.07941   0.89100   1.000
    C78     C    0.77082   0.00671   0.49150   1.000
    C79     C    0.45954   0.29919   0.72069   1.000
    C80     C    0.19818   0.06591   0.82329   1.000
    C81     C    0.94119   0.99621   0.51951   1.000
    C82     C    0.48163   0.20222   0.68225   1.000
    C83     C    0.36160   0.51473   0.81965   1.000
    C84     C    0.40502   0.21922   0.89532   1.000
    C85     C    0.87883   0.01844   0.45311   1.000
    C86     C    0.33223   0.61006   0.86597   1.000
    C87     C    0.92031   0.61050   0.60155   1.000
    C88     C    0.35938   0.51419   0.01535   1.000
    C89     C    0.80981   0.69578   0.64280   1.000
    C90     C    0.77681   0.95759   0.65785   1.000
    C91     C    0.88524   0.96703   0.62539   1.000
    N92     N    0.70500   0.02594   0.17703   1.000
    N93     N    0.53258   0.88505   0.25450   1.000
    N94     N    0.28117   0.27810   0.38845   1.000
    N95     N    0.27987   0.02581   0.40785   1.000
    N96     N    0.67066   0.38795   0.03680   1.000
    N97     N    0.29505   0.97401   0.82299   1.000
    N98     N    0.46740   0.11492   0.74546   1.000
    N99     N    0.71891   0.72195   0.61150   1.000
    N100    N    0.72012   0.97424   0.59208   1.000
    N101    N    0.32936   0.61200   0.96310   1.000
    Cl102   Cl   0.63130   0.89835   0.43045   1.000
    Cl103   Cl   0.42852   0.15559   0.15617   1.000
    Cl104   Cl   0.57693   0.21042   0.36170   1.000
    Cl105   Cl   0.36862   0.10147   0.56955   1.000
    Cl106   Cl   0.57161   0.84439   0.84375   1.000
    Cl107   Cl   0.42311   0.78943   0.63841   1.000
loop_
    _geom_bond_atom_site_label_1
    _geom_bond_atom_site_label_2
    _geom_bond_distance
    _geom_bond_site_symmetry_2
    _ccdc_geom_bond_type
    C88    H38       1.09269      .   S
    C88    N101      1.34859  1_554   S
    C88    C75       1.39397  1_554   S
    H24    C74       1.08859  1_554   S
    H13    C59       1.08928      .   S
    H25    C75       1.09097  1_554   S
    C50    C48       1.40609      .   S
    C50    H5        1.09097  1_554   S
    C50    C63       1.39396  1_554   S
    C49    C44       1.40646      .   S
    C49    C47       1.39022      .   S
    C49    H4        1.08823  1_554   S
    C44    C52       1.40618  1_545   S
    C44    C69       1.48524  1_644   S
    N96    C61       1.34710      .   S
    N96    C63       1.34807  1_554   S
    H6     C51       1.09013      .   S
    C59    C51       1.39036      .   S
    C59    C43       1.40431      .   S
    H3     C47       1.08994      .   S
    C47    N92       1.34974      .   S
    C52    H7        1.08842      .   S
    C52    C55       1.39031      .   S
    C48    C43       1.48145      .   S
    C48    C58       1.40440      .   S
    C61    H15       1.09220      .   S
    C61    C58       1.39326      .   S
    C51    N93       1.35026      .   S
    Cl103  La32      2.78344      .   S
    C43    C54       1.40642      .   S
    C55    N92       1.34898  1_565   S
    C55    H10       1.09005      .   S
    N92    La32      2.78108      .   S
    C58    H12       1.08965      .   S
    N93    C57       1.35185      .   S
    N93    La32      2.79084  1_565   S
    H19    C65       1.09118      .   S
    C54    C57       1.39002      .   S
    C54    H9        1.08945      .   S
    H18    C64       1.09009      .   S
    H20    C66       1.08816      .   S
    C57    H11       1.09183      .   S
    La32   Cl104     2.75991      .   S
    La32   N94       2.79705      .   S
    La32   N95       2.81908      .   S
    La32   Cl102     2.87483  1_545   S
    C65    C66       1.38900      .   S
    C65    N95       1.35221      .   S
    C64    N94       1.34734      .   S
    C64    C62       1.38867      .   S
    H16    C62       1.08796      .   S
    H35    C85       1.08795      .   S
    C66    C56       1.40710      .   S
    N94    C46       1.34874      .   S
    C62    C45       1.40439      .   S
    N95    C53       1.34936  1_545   S
    H21    C67       1.08801      .   S
    H28    C78       1.08823      .   S
    C85    C78       1.38994      .   S
    C85    C81       1.40283  1_545   S
    C46    H2        1.08950      .   S
    C46    C42       1.38975      .   S
    C45    C42       1.40543      .   S
    C45    C70       1.48285  1_455   S
    C56    C81       1.48363  1_445   S
    C56    C60       1.40283  1_545   S
    C78    N100      1.34954  1_545   S
    C67    C70       1.40546      .   S
    C67    C71       1.38976      .   S
    C42    H1        1.08709      .   S
    C53    C60       1.38994      .   S
    C53    H8        1.08859      .   S
    H22    C71       1.08989      .   S
    C81    C91       1.40706      .   S
    C70    C87       1.40438      .   S
    C71    N99       1.34870      .   S
    C60    H14       1.08802      .   S
    Cl105  La0       2.87467  1_545   S
    N100   C90       1.35140      .   S
    N100   La0       2.81943      .   S
    H31    C82       1.09184      .   S
    C87    H37       1.08796      .   S
    C87    C89       1.38855      .   S
    N99    C89       1.34683      .   S
    N99    La0       2.79658      .   S
    C91    C90       1.38915      .   S
    C91    H41       1.08821      .   S
    Cl107  La0       2.76009      .   S
    C89    H39       1.08970      .   S
    C90    H40       1.09195      .   S
    La0    N98       2.79077  1_565   S
    La0    N97       2.78105      .   S
    La0    Cl106     2.78320      .   S
    H29    C79       1.08948      .   S
    C82    C79       1.39002      .   S
    C82    N98       1.35185      .   S
    C79    C68       1.40645      .   S
    H33    C83       1.08961      .   S
    N98    C76       1.35028      .   S
    H30    C80       1.09046      .   S
    C83    C86       1.39329      .   S
    C83    C73       1.40439      .   S
    H36    C86       1.09275      .   S
    N97    C80       1.34900  1_565   S
    N97    C72       1.34975      .   S
    C80    C77       1.39009      .   S
    C68    C73       1.48143      .   S
    C68    C84       1.40433      .   S
    C76    C84       1.39035      .   S
    C76    H26       1.09015      .   S
    C86    N101      1.34589      .   S
    C73    C75       1.40603      .   S
    H27    C77       1.08816      .   S
    C77    C69       1.40661  1_545   S
    C72    H23       1.08995      .   S
    C72    C74       1.39000      .   S
    C84    H34       1.08931      .   S
    H17    C63       1.09264      .   S
    C69    C74       1.40628      .   S
