# CIF file generated by openbabel 2.4.90, see http://openbabel.sf.net
data_I
_chemical_name_common ''
_cell_length_a 13.449
_cell_length_b 13.571
_cell_length_c 13.962
_cell_angle_alpha 77.615
_cell_angle_beta 65.011
_cell_angle_gamma 63.881
_space_group_name_H-M_alt 'P 1'
_space_group_name_Hall 'P 1'
loop_
    _symmetry_equiv_pos_as_xyz
    x,y,z
loop_
    _atom_site_label
    _atom_site_type_symbol
    _atom_site_fract_x
    _atom_site_fract_y
    _atom_site_fract_z
    _atom_site_occupancy
    N0      N    0.00005   0.50003   0.49996   1.000
    N1      N    0.00002   0.99997   0.00000   1.000
    N2      N    0.99999   0.00003   0.49996   1.000
    Zr3     Zr   0.52932   0.08586   0.32160   1.000
    O4      O    0.35988   0.21258   0.37661   1.000
    O5      O    0.35970   0.05604   0.37903   1.000
    O6      O    0.66285   0.05605   0.22519   1.000
    Zr7     Zr   0.47071   0.91404   0.67841   1.000
    O8      O    0.64017   0.78738   0.62337   1.000
    O9      O    0.64031   0.94392   0.62094   1.000
    O10     O    0.33718   0.94387   0.77482   1.000
loop_
    _geom_bond_atom_site_label_1
    _geom_bond_atom_site_label_2
    _geom_bond_distance
    _geom_bond_site_symmetry_2
    _ccdc_geom_bond_type
    Zr3    O4        2.09227      .   S
    N0     O4        4.56309      .   S
    Zr3    O5        2.26676      .   S
    N2     O5        4.75592  1_655   S
    Zr3    O6        1.65902      .   S
    N1     O6        4.11937  1_465   S
    Zr7    O8        2.09209      .   S
    N0     O8        4.56282  1_455   S
    Zr7    O9        2.26698      .   S
    N2     O9        4.75619  1_545   S
    Zr7    O10       1.65896      .   S
    N1     O10       4.11922  1_554   S
