# CIF file generated by openbabel 2.4.90, see http://openbabel.sf.net
data_I
_chemical_name_common 'InH40C24NO8'
_cell_length_a 12.7072
_cell_length_b 12.778
_cell_length_c 18.446
_cell_angle_alpha 90.23
_cell_angle_beta 90.0279
_cell_angle_gamma 60.2818
_space_group_name_H-M_alt 'P 1'
_space_group_name_Hall 'P 1'
loop_
    _symmetry_equiv_pos_as_xyz
    x,y,z
loop_
    _atom_site_label
    _atom_site_type_symbol
    _atom_site_fract_x
    _atom_site_fract_y
    _atom_site_fract_z
    _atom_site_occupancy
    In0     In   0.99940   0.63049   0.49987   1.000
    In1     In   0.36988   0.99993   0.16605   1.000
    In2     In   0.63023   0.36927   0.83385   1.000
    H3      H    0.39547   0.99868   0.42846   1.000
    H4      H    0.52131   0.11413   0.35293   1.000
    H5      H    0.43173   0.16110   0.43217   1.000
    H6      H    0.61740   0.07672   0.49776   1.000
    H7      H    0.70116   0.00418   0.41911   1.000
    H8      H    0.59929   0.95061   0.59009   1.000
    H9      H    0.57066   0.83275   0.56526   1.000
    H10     H    0.46753   0.98491   0.53978   1.000
    H11     H    0.50934   0.74625   0.37935   1.000
    H12     H    0.47659   0.79800   0.47046   1.000
    H13     H    0.62550   0.68333   0.44653   1.000
    H14     H    0.63375   0.79477   0.29910   1.000
    H15     H    0.75442   0.73036   0.36242   1.000
    H16     H    0.70072   0.87958   0.32986   1.000
    H17     H    0.60570   0.39713   0.09677   1.000
    H18     H    0.36566   0.51723   0.02017   1.000
    H19     H    0.40733   0.43075   0.10015   1.000
    H20     H    0.30453   0.61769   0.16397   1.000
    H21     H    0.29508   0.69867   0.08475   1.000
    H22     H    0.44727   0.60375   0.25701   1.000
    H23     H    0.59402   0.57616   0.23288   1.000
    H24     H    0.54523   0.47166   0.20770   1.000
    H25     H    0.74454   0.51159   0.04781   1.000
    H26     H    0.72417   0.48153   0.13909   1.000
    H27     H    0.69036   0.62939   0.11404   1.000
    H28     H    0.57322   0.63206   0.96647   1.000
    H29     H    0.51590   0.75369   0.02912   1.000
    H30     H    0.42116   0.69763   0.00000   1.000
    H31     H    0.00000   0.60537   0.76243   1.000
    H32     H    0.11523   0.36789   0.68573   1.000
    H33     H    0.16193   0.41056   0.76516   1.000
    H34     H    0.07822   0.30790   0.83008   1.000
    H35     H    0.00499   0.29719   0.75150   1.000
    H36     H    0.95201   0.45025   0.92361   1.000
    H37     H    0.83293   0.59557   0.89995   1.000
    H38     H    0.98561   0.54799   0.87362   1.000
    H39     H    0.74424   0.74344   0.71498   1.000
    H40     H    0.79641   0.72430   0.80591   1.000
    H41     H    0.68151   0.68941   0.78193   1.000
    H42     H    0.79295   0.57186   0.63383   1.000
    H43     H    0.72917   0.51487   0.69720   1.000
    H44     H    0.87906   0.42104   0.66357   1.000
    H45     H    0.60474   0.39526   0.57156   1.000
    H46     H    0.48249   0.63292   0.64854   1.000
    H47     H    0.57165   0.59084   0.56912   1.000
    H48     H    0.38558   0.69298   0.50414   1.000
    H49     H    0.30181   0.70344   0.58268   1.000
    H50     H    0.40089   0.55110   0.41046   1.000
    H51     H    0.42741   0.40547   0.43391   1.000
    H52     H    0.53240   0.45348   0.46019   1.000
    H53     H    0.48758   0.25664   0.61862   1.000
    H54     H    0.52016   0.27639   0.52771   1.000
    H55     H    0.37074   0.31065   0.55176   1.000
    H56     H    0.36494   0.42772   0.70006   1.000
    H57     H    0.24415   0.48468   0.63676   1.000
    H58     H    0.30017   0.57871   0.67058   1.000
    H59     H    0.39337   0.00077   0.90366   1.000
    H60     H    0.63427   0.88489   0.97933   1.000
    H61     H    0.59157   0.83824   0.89990   1.000
    H62     H    0.69340   0.92267   0.83473   1.000
    H63     H    0.70491   0.99476   0.91360   1.000
    H64     H    0.55027   0.04935   0.74236   1.000
    H65     H    0.40409   0.16726   0.76702   1.000
    H66     H    0.45231   0.01504   0.79216   1.000
    H67     H    0.25569   0.25308   0.95264   1.000
    H68     H    0.27492   0.20133   0.86150   1.000
    H69     H    0.30946   0.31596   0.88570   1.000
    H70     H    0.42817   0.20449   0.03331   1.000
    H71     H    0.48473   0.26898   0.97022   1.000
    H72     H    0.57980   0.11975   0.00278   1.000
    H73     H    0.00333   0.60187   0.23726   1.000
    H74     H    0.88445   0.47987   0.31327   1.000
    H75     H    0.83899   0.56744   0.23372   1.000
    H76     H    0.92309   0.38144   0.16889   1.000
    H77     H    0.99502   0.29946   0.24773   1.000
    H78     H    0.05117   0.39738   0.07618   1.000
    H79     H    0.17005   0.42532   0.10071   1.000
    H80     H    0.01702   0.52893   0.12622   1.000
    H81     H    0.25657   0.48769   0.28637   1.000
    H82     H    0.20594   0.51871   0.19515   1.000
    H83     H    0.31997   0.37072   0.21963   1.000
    H84     H    0.20576   0.36601   0.36697   1.000
    H85     H    0.27011   0.24502   0.30385   1.000
    H86     H    0.11956   0.30024   0.33653   1.000
    H87     H    0.21169   0.82732   0.25288   1.000
    H88     H    0.06016   0.87079   0.22659   1.000
    H89     H    0.13640   0.74831   0.28873   1.000
    H90     H    0.92529   0.99612   0.40421   1.000
    H91     H    0.96994   0.84741   0.37113   1.000
    H92     H    0.89327   0.97535   0.31229   1.000
    H93     H    0.17391   0.78725   0.41263   1.000
    H94     H    0.12976   0.93772   0.44011   1.000
    H95     H    0.25222   0.86335   0.37687   1.000
    H96     H    0.00078   0.07404   0.26401   1.000
    H97     H    0.15075   0.02990   0.29583   1.000
    H98     H    0.02299   0.10475   0.35595   1.000
    H99     H    0.96101   0.21197   0.92057   1.000
    H100    H    0.06681   0.06140   0.89320   1.000
    H101    H    0.11529   0.13588   0.95628   1.000
    H102    H    0.07406   0.92594   0.06949   1.000
    H103    H    0.18000   0.96957   0.03751   1.000
    H104    H    0.12674   0.89457   0.00000   1.000
    H105    H    0.03898   0.17235   0.08025   1.000
    H106    H    0.93095   0.12884   0.10675   1.000
    H107    H    0.88477   0.25117   0.04449   1.000
    H108    H    0.92077   0.00293   0.92935   1.000
    H109    H    0.81713   0.15180   0.96219   1.000
    H110    H    0.86808   0.02414   0.02126   1.000
    H111    H    0.82564   0.96156   0.58675   1.000
    H112    H    0.87033   0.06828   0.56036   1.000
    H113    H    0.74764   0.11482   0.62331   1.000
    H114    H    0.99876   0.07643   0.73726   1.000
    H115    H    0.84911   0.18055   0.70532   1.000
    H116    H    0.97726   0.12921   0.64561   1.000
    H117    H    0.78758   0.03810   0.74686   1.000
    H118    H    0.93896   0.93193   0.77314   1.000
    H119    H    0.86293   0.88485   0.71026   1.000
    H120    H    0.07457   0.92462   0.59614   1.000
    H121    H    0.02953   0.81994   0.62810   1.000
    H122    H    0.10620   0.87178   0.68776   1.000
    C123    C    0.63527   0.89983   0.47616   1.000
    C124    C    0.58165   0.86169   0.40974   1.000
    C125    C    0.46787   0.98590   0.39066   1.000
    C126    C    0.50516   0.08238   0.40465   1.000
    C127    C    0.62150   0.02111   0.45110   1.000
    C128    C    0.56355   0.91744   0.54684   1.000
    C129    C    0.54620   0.76662   0.42790   1.000
    C130    C    0.67318   0.81434   0.34668   1.000
    C131    C    0.76641   0.80276   0.48995   1.000
    C132    C    0.41905   0.98609   0.31537   1.000
    C133    C    0.46394   0.63667   0.14298   1.000
    C134    C    0.55660   0.58247   0.07719   1.000
    C135    C    0.54649   0.46784   0.05858   1.000
    C136    C    0.41277   0.50354   0.07207   1.000
    C137    C    0.35697   0.62082   0.11753   1.000
    C138    C    0.51675   0.56758   0.21420   1.000
    C139    C    0.68665   0.54931   0.09597   1.000
    C140    C    0.51347   0.67187   0.01361   1.000
    C141    C    0.42980   0.76778   0.15611   1.000
    C142    C    0.59577   0.41819   0.98357   1.000
    C143    C    0.90011   0.46541   0.80998   1.000
    C144    C    0.86095   0.55699   0.74412   1.000
    C145    C    0.98544   0.54778   0.72453   1.000
    C146    C    0.08304   0.41516   0.73772   1.000
    C147    C    0.02200   0.35939   0.78392   1.000
    C148    C    0.91809   0.51899   0.88083   1.000
    C149    C    0.76503   0.68623   0.76317   1.000
    C150    C    0.81328   0.51289   0.68107   1.000
    C151    C    0.80299   0.43067   0.82403   1.000
    C152    C    0.98495   0.59639   0.64936   1.000
    C153    C    0.36495   0.53521   0.52412   1.000
    C154    C    0.41765   0.44335   0.58982   1.000
    C155    C    0.53271   0.45300   0.60951   1.000
    C156    C    0.49756   0.58580   0.59648   1.000
    C157    C    0.38087   0.64136   0.55027   1.000
    C158    C    0.43601   0.48216   0.45313   1.000
    C159    C    0.45099   0.31406   0.57052   1.000
    C160    C    0.32619   0.48688   0.65292   1.000
    C161    C    0.23322   0.56966   0.51013   1.000
    C162    C    0.58091   0.40443   0.68469   1.000
    C163    C    0.53514   0.09958   0.85643   1.000
    C164    C    0.44320   0.13760   0.92261   1.000
    C165    C    0.45313   0.01340   0.94149   1.000
    C166    C    0.58658   0.91683   0.92757   1.000
    C167    C    0.64207   0.97812   0.88142   1.000
    C168    C    0.48125   0.08243   0.78545   1.000
    C169    C    0.31307   0.23269   0.90421   1.000
    C170    C    0.48726   0.18496   0.98585   1.000
    C171    C    0.56963   0.19666   0.84334   1.000
    C172    C    0.40470   0.01331   0.01679   1.000
    C173    C    0.10121   0.36297   0.19008   1.000
    C174    C    0.13968   0.41661   0.25632   1.000
    C175    C    0.01510   0.53075   0.27525   1.000
    C176    C    0.91740   0.49453   0.26148   1.000
    C177    C    0.97876   0.37791   0.21541   1.000
    C178    C    0.08450   0.43321   0.11928   1.000
    C179    C    0.23633   0.45040   0.23797   1.000
    C180    C    0.18596   0.32651   0.31953   1.000
    C181    C    0.19817   0.23216   0.17626   1.000
    C182    C    0.01449   0.58036   0.35040   1.000
    C183    C    0.12621   0.83456   0.27079   1.000
    C184    C    0.95769   0.93594   0.35707   1.000
    C185    C    0.16594   0.87271   0.39531   1.000
    C186    C    0.06214   0.04139   0.31054   1.000
    C187    C    0.03826   0.12653   0.93793   1.000
    C188    C    0.10280   0.95807   0.02289   1.000
    C189    C    0.96070   0.16501   0.06246   1.000
    C190    C    0.89317   0.06335   0.97637   1.000
    C191    C    0.83386   0.03895   0.60473   1.000
    C192    C    0.93770   0.10450   0.69058   1.000
    C193    C    0.87309   0.96100   0.72881   1.000
    C194    C    0.04189   0.89624   0.64284   1.000
    N195    N    0.07728   0.92189   0.33343   1.000
    N196    N    0.99876   0.07751   0.99992   1.000
    N197    N    0.92235   0.00018   0.66674   1.000
    O198    O    0.85390   0.82467   0.47789   1.000
    O199    O    0.78894   0.70002   0.51216   1.000
    O200    O    0.45729   0.02439   0.26228   1.000
    O201    O    0.34538   0.94799   0.30596   1.000
    O202    O    0.32065   0.85361   0.14376   1.000
    O203    O    0.50993   0.79183   0.17820   1.000
    O204    O    0.51963   0.45510   0.93025   1.000
    O205    O    0.70731   0.34554   0.97458   1.000
    O206    O    0.82549   0.32174   0.81180   1.000
    O207    O    0.69950   0.50994   0.84660   1.000
    O208    O    0.02266   0.52044   0.59591   1.000
    O209    O    0.94705   0.70732   0.64037   1.000
    O210    O    0.14697   0.67854   0.52225   1.000
    O211    O    0.20899   0.49016   0.48764   1.000
    O212    O    0.54275   0.48029   0.73815   1.000
    O213    O    0.65404   0.29356   0.69374   1.000
    O214    O    0.67883   0.17476   0.85586   1.000
    O215    O    0.48972   0.29960   0.82136   1.000
    O216    O    0.48132   0.97544   0.06981   1.000
    O217    O    0.29314   0.05116   0.02635   1.000
    O218    O    0.17526   0.14584   0.18858   1.000
    O219    O    0.30175   0.20875   0.15365   1.000
    O220    O    0.97522   0.54330   0.40363   1.000
    O221    O    0.05305   0.65346   0.35959   1.000
loop_
    _geom_bond_atom_site_label_1
    _geom_bond_atom_site_label_2
    _geom_bond_distance
    _geom_bond_site_symmetry_2
    _ccdc_geom_bond_type
    H30    C140      1.07936      .   S
    H104   C188      0.82579      .   S
    H72    C170      1.09770  1_554   S
    C140   H29       1.09788      .   S
    C140   C134      1.53960      .   S
    C140   H28       1.09796  1_554   S
    C172   O217      1.26277      .   S
    C172   O216      1.29396  1_545   S
    C172   C165      1.51966  1_554   S
    H18    C136      1.09663      .   S
    H110   C190      1.09556  1_554   S
    C188   H103      1.09498      .   S
    C188   H102      1.09199      .   S
    C188   N196      1.50363  1_464   S
    H70    C170      1.09791  1_554   S
    H107   C189      1.09656      .   S
    H25    C139      1.09909      .   S
    C135   C136      1.54535      .   S
    C135   C134      1.56921      .   S
    C135   H17       1.09971      .   S
    C135   C142      1.51954  1_554   S
    C189   H105      1.09451  1_655   S
    C189   H106      1.09568      .   S
    C189   N196      1.50633  1_554   S
    O216   In1       2.19392      .   S
    C136   H19       1.09816      .   S
    C136   C137      1.54553      .   S
    H78    C178      1.09999      .   S
    C134   C139      1.52873      .   S
    C134   C133      1.58897      .   S
    H21    C137      1.09656      .   S
    C139   H27       1.09786      .   S
    C139   H26       1.09813      .   S
    H79    C178      1.09581      .   S
    C137   C133      1.54297      .   S
    C137   H20       1.09850      .   S
    C178   H80       1.09852      .   S
    C178   C173      1.54159      .   S
    C133   C141      1.52627      .   S
    C133   C138      1.54156      .   S
    O202   C141      1.29304      .   S
    O219   C181      1.26693      .   S
    C141   O203      1.26734      .   S
    In1    O218      2.27773  1_565   S
    In1    O200      2.19552  1_565   S
    H76    C177      1.09848      .   S
    C181   O218      1.29359      .   S
    C181   C173      1.52702      .   S
    C173   C177      1.54322  1_455   S
    C173   C174      1.58950      .   S
    H82    C179      1.09810      .   S
    H24    C138      1.09854      .   S
    C138   H23       1.09583      .   S
    C138   H22       1.10000      .   S
    C177   H77       1.09655      .   S
    C177   C176      1.54571      .   S
    H83    C179      1.09789      .   S
    H88    C183      1.09564      .   S
    H75    C176      1.09815      .   S
    H73    C175      1.09986      .   S
    C179   C174      1.52864      .   S
    C179   H81       1.09908      .   S
    H87    C183      1.09453      .   S
    C174   C175      1.56925      .   S
    C174   C180      1.53943      .   S
    C176   C175      1.54538  1_655   S
    C176   H74       1.09668      .   S
    O200   C132      1.29406  1_545   S
    H96    C186      1.09456      .   S
    C183   H89       1.09654      .   S
    C183   N195      1.50647      .   S
    C175   C182      1.52044      .   S
    H97    C186      1.09511      .   S
    H14    C130      1.09813      .   S
    H85    C180      1.09789      .   S
    O201   C132      1.26277      .   S
    C186   N195      1.50362  1_545   S
    C186   H98       1.09557      .   S
    H92    C184      1.09554      .   S
    C132   C125      1.52035      .   S
    C180   H86       1.09769      .   S
    C180   H84       1.09813      .   S
    H16    C130      1.09773      .   S
    N195   C184      1.50377  1_455   S
    N195   C185      1.50652      .   S
    C130   H15       1.09787      .   S
    C130   C124      1.53949      .   S
    C182   O221      1.26247      .   S
    C182   O220      1.29448  1_455   S
    H4     C126      1.09669      .   S
    C184   H91       1.09500      .   S
    C184   H90       1.09451      .   S
    H95    C185      1.09651      .   S
    H11    C129      1.09904      .   S
    C125   C126      1.54519  1_565   S
    C125   C124      1.56913      .   S
    C125   H3        1.09999      .   S
    C185   H93       1.09435      .   S
    C185   H94       1.09565      .   S
    O220   In0       2.19329      .   S
    C126   H5        1.09814      .   S
    C126   C127      1.54572      .   S
    C124   C129      1.52874      .   S
    C124   C123      1.58954      .   S
    H50    C158      1.10000      .   S
    H7     C127      1.09649      .   S
    C129   H13       1.09786      .   S
    C129   H12       1.09825      .   S
    H51    C158      1.09585      .   S
    C127   C123      1.54357  1_545   S
    C127   H6        1.09854      .   S
    C158   H52       1.09859      .   S
    C158   C153      1.54165      .   S
    C123   C131      1.52735      .   S
    C123   C128      1.54157      .   S
    O198   C131      1.29360      .   S
    O198   In0       2.27993      .   S
    O211   C161      1.26706      .   S
    C131   O199      1.26681      .   S
    In0    O208      2.19329  1_655   S
    H48    C157      1.09842      .   S
    C161   O210      1.29338      .   S
    C161   C153      1.52724      .   S
    C153   C157      1.54284      .   S
    C153   C154      1.58942      .   S
    H54    C159      1.09825      .   S
    H10    C128      1.09859      .   S
    C128   H9        1.09581      .   S
    C128   H8        1.09998      .   S
    C157   H49       1.09657      .   S
    C157   C156      1.54562      .   S
    H55    C159      1.09787      .   S
    H112   C191      1.09567      .   S
    H47    C156      1.09819      .   S
    C159   C154      1.52877      .   S
    C159   H53       1.09910      .   S
    H45    C155      1.09498      .   S
    H111   C191      1.09471  1_565   S
    C154   C155      1.56931      .   S
    C154   C160      1.53942      .   S
    O208   C152      1.29428  1_455   S
    H120   C194      1.09456      .   S
    C156   C155      1.54545      .   S
    C156   H46       1.09665      .   S
    C191   H113      1.09652      .   S
    C191   N197      1.50638      .   S
    C155   C162      1.52080      .   S
    H121   C194      1.09501      .   S
    H42    C150      1.09811      .   S
    H57    C160      1.09772      .   S
    O209   C152      1.26240      .   S
    C194   N197      1.50385  1_465   S
    C194   H122      1.09553      .   S
    H116   C192      1.09556      .   S
    C152   C145      1.52038      .   S
    C160   H58       1.09768      .   S
    C160   H56       1.09812      .   S
    H44    C150      1.09766      .   S
    N197   C192      1.50367      .   S
    N197   C193      1.50651  1_545   S
    C150   H43       1.09771      .   S
    C150   C144      1.53935      .   S
    C162   O213      1.26291      .   S
    C162   O212      1.29384      .   S
    H32    C146      1.09666      .   S
    C192   H115      1.09503      .   S
    C192   H114      1.09454      .   S
    H119   C193      1.09656      .   S
    H39    C149      1.09910      .   S
    C145   C146      1.54539  1_655   S
    C145   C144      1.56915      .   S
    C145   H31       1.09336  1_655   S
    C193   H117      1.09470  1_565   S
    C193   H118      1.09566      .   S
    C146   H33       1.09816      .   S
    C146   C147      1.54568      .   S
    O212   In2       2.19520      .   S
    H64    C168      1.10003      .   S
    C144   C149      1.52855      .   S
    C144   C143      1.58936      .   S
    H35    C147      1.09656      .   S
    C149   H41       1.09785      .   S
    C149   H40       1.09816      .   S
    H65    C168      1.09581      .   S
    C147   C143      1.54294  1_455   S
    C147   H34       1.09830      .   S
    C168   H66       1.09866      .   S
    C168   C163      1.54149      .   S
    C143   C151      1.52710      .   S
    C143   C148      1.54158      .   S
    O206   C151      1.29348      .   S
    O206   In2       2.27938      .   S
    O215   C171      1.26707      .   S
    C151   O207      1.26696      .   S
    In2    O204      2.19064      .   S
    H62    C167      1.09846      .   S
    C171   O214      1.29320      .   S
    C171   C163      1.52667      .   S
    C163   C167      1.54329  1_545   S
    C163   C164      1.58913      .   S
    H68    C169      1.09821      .   S
    H38    C148      1.09859      .   S
    C148   H37       1.09584      .   S
    C148   H36       1.09997      .   S
    C167   H63       1.09646      .   S
    C167   C166      1.54562      .   S
    H69    C169      1.09785      .   S
    H100   C187      1.09567      .   S
    H61    C166      1.09810      .   S
    H59    C165      1.09998      .   S
    C169   C164      1.52860      .   S
    C169   H67       1.09907      .   S
    H99    C187      1.09453  1_655   S
    C164   C165      1.56899      .   S
    C164   C170      1.53953      .   S
    C166   C165      1.54518  1_565   S
    C166   H60       1.09663      .   S
    H108   C190      1.09450      .   S
    O204   C142      1.29463      .   S
    C187   H101      1.09652      .   S
    C187   N196      1.50653  1_455   S
    H109   C190      1.09491      .   S
    H71    C170      1.09780      .   S
    O205   C142      1.26204      .   S
    C190   N196      1.50363      .   S
    O199   In0       2.37407      .   S
    O202   In1       2.28228      .   S
    O203   In1       2.36652      .   S
    O207   In2       2.37206      .   S
    O210   In0       2.28097  1_455   S
    O211   In0       2.37111  1_455   S
    O214   In2       2.28240      .   S
    O215   In2       2.36799      .   S
    O219   In1       2.37406  1_545   S
