# CIF file generated by openbabel 2.4.90, see http://openbabel.sf.net
data_I
_chemical_name_common ''
_cell_length_a 5.7155
_cell_length_b 10.6165
_cell_length_c 16.195
_cell_angle_alpha 90.001
_cell_angle_beta 90.007
_cell_angle_gamma 92.9
_space_group_name_H-M_alt 'P 1'
_space_group_name_Hall 'P 1'
loop_
    _symmetry_equiv_pos_as_xyz
    x,y,z
loop_
    _atom_site_label
    _atom_site_type_symbol
    _atom_site_fract_x
    _atom_site_fract_y
    _atom_site_fract_z
    _atom_site_occupancy
    H0      H    0.41045   0.69648   0.42801   1.000
    H1      H    0.22069   0.82909   0.32242   1.000
    H2      H    0.73830   0.71373   0.14760   1.000
    H3      H    0.90291   0.58284   0.25931   1.000
    H4      H    0.58948   0.80340   0.92796   1.000
    H5      H    0.77894   0.67059   0.82241   1.000
    H6      H    0.26116   0.78583   0.64760   1.000
    H7      H    0.09673   0.91684   0.75925   1.000
    H8      H    0.58964   0.30327   0.57195   1.000
    H9      H    0.77955   0.17071   0.67756   1.000
    H10     H    0.26178   0.28589   0.85236   1.000
    H11     H    0.09697   0.41673   0.74065   1.000
    H12     H    0.41072   0.19686   0.07187   1.000
    H13     H    0.22092   0.32950   0.17746   1.000
    H14     H    0.73878   0.21432   0.35228   1.000
    H15     H    0.90354   0.08348   0.24057   1.000
    C16     C    0.47796   0.70308   0.36508   1.000
    C17     C    0.37348   0.77693   0.30644   1.000
    C18     C    0.46369   0.78227   0.22562   1.000
    C19     C    0.66017   0.71249   0.20883   1.000
    C20     C    0.75301   0.63991   0.27099   1.000
    C21     C    0.52181   0.79671   0.86504   1.000
    C22     C    0.62615   0.72276   0.80643   1.000
    C23     C    0.53592   0.71740   0.72561   1.000
    C24     C    0.33936   0.78712   0.70882   1.000
    C25     C    0.24666   0.85979   0.77095   1.000
    C26     C    0.52207   0.29660   0.63487   1.000
    C27     C    0.62664   0.22280   0.69351   1.000
    C28     C    0.53642   0.21746   0.77432   1.000
    C29     C    0.33984   0.28714   0.79112   1.000
    C30     C    0.24691   0.35968   0.72897   1.000
    C31     C    0.47832   0.20358   0.13478   1.000
    C32     C    0.37381   0.27740   0.19342   1.000
    C33     C    0.46403   0.28270   0.27424   1.000
    C34     C    0.66066   0.21305   0.29104   1.000
    C35     C    0.75358   0.14052   0.22890   1.000
    N36     N    0.66434   0.63325   0.34841   1.000
    N37     N    0.33548   0.86658   0.84837   1.000
    N38     N    0.33558   0.36634   0.65155   1.000
    N39     N    0.66479   0.13382   0.15148   1.000
loop_
    _geom_bond_atom_site_label_1
    _geom_bond_atom_site_label_2
    _geom_bond_distance
    _geom_bond_site_symmetry_2
    _ccdc_geom_bond_type
    H12    C31       1.09075      .   S
    C31    N39       1.35545      .   S
    C31    C32       1.38570      .   S
    H2     C19       1.08734      .   S
    N39    C35       1.35312      .   S
    H13    C32       1.08872      .   S
    C32    C33       1.40676      .   S
    C19    C18       1.40283      .   S
    C19    C20       1.38919      .   S
    C18    C17       1.40686      .   S
    C35    H15       1.09067      .   S
    C35    C34       1.38901      .   S
    H3     C20       1.09067      .   S
    C20    N36       1.35303      .   S
    C33    C34       1.40283      .   S
    C34    H14       1.08734      .   S
    C17    H1        1.08873      .   S
    C17    C16       1.38586      .   S
    N36    C16       1.35541      .   S
    C16    H0        1.09075      .   S
    H8     C26       1.09073      .   S
    C26    N38       1.35541      .   S
    C26    C27       1.38577      .   S
    H6     C24       1.08734      .   S
    N38    C30       1.35307      .   S
    H9     C27       1.08875      .   S
    C27    C28       1.40674      .   S
    C24    C23       1.40284      .   S
    C24    C25       1.38919      .   S
    C23    C22       1.40679      .   S
    C30    H11       1.09065      .   S
    C30    C29       1.38906      .   S
    H7     C25       1.09065      .   S
    C25    N37       1.35313      .   S
    C28    C29       1.40278      .   S
    C29    H10       1.08735      .   S
    C22    H5        1.08876      .   S
    C22    C21       1.38588      .   S
    N37    C21       1.35545      .   S
    C21    H4        1.09076      .   S
