# CIF file generated by openbabel 2.4.90, see http://openbabel.sf.net
data_I
_chemical_name_common ''
_cell_length_a 5.7155
_cell_length_b 10.6165
_cell_length_c 16.195
_cell_angle_alpha 90.001
_cell_angle_beta 90.007
_cell_angle_gamma 92.9
_space_group_name_H-M_alt 'P 1'
_space_group_name_Hall 'P 1'
loop_
    _symmetry_equiv_pos_as_xyz
    x,y,z
loop_
    _atom_site_label
    _atom_site_type_symbol
    _atom_site_fract_x
    _atom_site_fract_y
    _atom_site_fract_z
    _atom_site_occupancy
    Lv0     Lv   0.43354   0.29266   0.71169   1.000
    Lv1     Lv   0.56692   0.20752   0.21160   1.000
    Lv2     Lv   0.56650   0.70701   0.28827   1.000
    Lv3     Lv   0.43317   0.79270   0.78824   1.000
