# CIF file generated by openbabel 2.4.90, see http://openbabel.sf.net
data_I
_chemical_name_common ''
_cell_length_a 5.7155
_cell_length_b 10.6165
_cell_length_c 16.195
_cell_angle_alpha 90.001
_cell_angle_beta 90.007
_cell_angle_gamma 92.9
_space_group_name_H-M_alt 'P 1'
_space_group_name_Hall 'P 1'
loop_
    _symmetry_equiv_pos_as_xyz
    x,y,z
loop_
    _atom_site_label
    _atom_site_type_symbol
    _atom_site_fract_x
    _atom_site_fract_y
    _atom_site_fract_z
    _atom_site_occupancy
    C0      C    0.34436   0.85166   0.16181   1.000
    C1      C    0.65521   0.64795   0.66183   1.000
    C2      C    0.65570   0.14809   0.83812   1.000
    C3      C    0.34456   0.35195   0.33804   1.000
    N4      N    0.43508   0.89151   0.08814   1.000
    N5      N    0.25307   0.94011   0.04752   1.000
    N6      N    0.06212   0.93049   0.09633   1.000
    N7      N    0.11624   0.87677   0.16830   1.000
    N8      N    0.56458   0.60822   0.58811   1.000
    N9      N    0.74658   0.55959   0.54753   1.000
    N10     N    0.93745   0.56907   0.59640   1.000
    N11     N    0.88327   0.62273   0.66839   1.000
    N12     N    0.56487   0.10827   0.91178   1.000
    N13     N    0.74679   0.05958   0.95237   1.000
    N14     N    0.93793   0.06936   0.90365   1.000
    N15     N    0.88382   0.12296   0.83164   1.000
    N16     N    0.43503   0.39143   0.41183   1.000
    N17     N    0.25298   0.43998   0.45243   1.000
    N18     N    0.06217   0.43055   0.40353   1.000
    N19     N    0.11652   0.37716   0.33147   1.000
loop_
    _geom_bond_atom_site_label_1
    _geom_bond_atom_site_label_2
    _geom_bond_distance
    _geom_bond_site_symmetry_2
    _ccdc_geom_bond_type
    N5     N4        1.35473      .   S
    N5     N6        1.34735      .   S
    N4     C0        1.36003      .   S
    N6     N7        1.34068      .   S
    C0     N7        1.34806      .   S
    N19    C3        1.34796      .   S
    N19    N18       1.34069      .   S
    C3     N16       1.35985      .   S
    N18    N17       1.34734      .   S
    N16    N17       1.35456      .   S
    N9     N8        1.35463      .   S
    N9     N10       1.34739      .   S
    N8     C1        1.35989      .   S
    N10    N11       1.34079      .   S
    C1     N11       1.34806      .   S
    N15    C2        1.34809      .   S
    N15    N14       1.34067      .   S
    C2     N12       1.35980      .   S
    N14    N13       1.34745      .   S
    N12    N13       1.35457      .   S
