# CIF file generated by openbabel 2.4.90, see http://openbabel.sf.net
data_I
_chemical_name_common ''
_cell_length_a 5.7155
_cell_length_b 10.6165
_cell_length_c 16.195
_cell_angle_alpha 90.001
_cell_angle_beta 90.007
_cell_angle_gamma 92.9
_space_group_name_H-M_alt 'P 1'
_space_group_name_Hall 'P 1'
loop_
    _symmetry_equiv_pos_as_xyz
    x,y,z
loop_
    _atom_site_label
    _atom_site_type_symbol
    _atom_site_fract_x
    _atom_site_fract_y
    _atom_site_fract_z
    _atom_site_occupancy
    Zr0     Zr   0.75156   0.49518   0.43051   1.000
    Zr1     Zr   0.24806   0.00372   0.93049   1.000
    Zr2     Zr   0.24791   0.50397   0.56947   1.000
    Zr3     Zr   0.75151   0.99535   0.06951   1.000
    N4      N    0.43354   0.29266   0.71169   1.000
    O5      O    0.36264   0.36391   0.66110   1.000
    N6      N    0.56692   0.20752   0.21160   1.000
    O7      O    0.63753   0.13605   0.16105   1.000
    N8      N    0.56650   0.70701   0.28827   1.000
    O9      O    0.63723   0.63561   0.33887   1.000
    N10     N    0.43317   0.79270   0.78824   1.000
    O11     O    0.36247   0.86393   0.83884   1.000
    C12     C    0.24218   0.89811   0.11242   1.000
    O13     O    0.41774   0.92077   0.09562   1.000
    O14     O    0.07450   0.93051   0.09767   1.000
    O15     O    0.24637   0.93501   0.05071   1.000
    O16     O    0.36372   0.83005   0.17671   1.000
    C17     C    0.75782   0.10165   0.88751   1.000
    O18     O    0.63631   0.16968   0.82323   1.000
    O19     O    0.92541   0.06909   0.90229   1.000
    O20     O    0.75349   0.06456   0.94923   1.000
    O21     O    0.58214   0.07882   0.90432   1.000
    C22     C    0.75742   0.60151   0.61245   1.000
    O23     O    0.63589   0.66960   0.67672   1.000
    O24     O    0.92505   0.56902   0.59769   1.000
    O25     O    0.75325   0.56445   0.55073   1.000
    O26     O    0.58183   0.57881   0.59562   1.000
    C27     C    0.24225   0.39821   0.38746   1.000
    O28     O    0.24635   0.43509   0.44920   1.000
    O29     O    0.41777   0.42076   0.40431   1.000
    O30     O    0.36393   0.33032   0.32316   1.000
    O31     O    0.07456   0.43054   0.40224   1.000
loop_
    _geom_bond_atom_site_label_1
    _geom_bond_atom_site_label_2
    _geom_bond_distance
    _geom_bond_site_symmetry_2
    _ccdc_geom_bond_type
    N4     O5        1.19937      .   S
    Zr2    O5        2.22295      .   S
    N6     O7        1.19999      .   S
    Zr3    O7        2.22530  1_565   S
    N8     O9        1.20012      .   S
    Zr0    O9        2.22508      .   S
    N10    O11       1.19889      .   S
    Zr1    O11       2.22075  1_545   S
    C12    O13       1.05564      .   S
    Zr3    O13       2.07178      .   S
    C12    O14       1.06169      .   S
    Zr3    O14       2.05375  1_655   S
    C12    O15       1.07325      .   S
    Zr1    O15       2.07901  1_546   S
    C12    O16       1.46263      .   S
    N8     O16       2.54298      .   S
    C17    O18       1.46230      .   S
    N4     O18       2.54240      .   S
    C17    O19       1.06191      .   S
    Zr1    O19       2.05433  1_455   S
    C17    O20       1.07411      .   S
    Zr3    O20       2.08183  1_564   S
    C17    O21       1.05665      .   S
    Zr1    O21       2.07547      .   S
    C22    O23       1.46257      .   S
    N10    O23       2.54293      .   S
    C22    O24       1.06187      .   S
    Zr2    O24       2.05425  1_455   S
    C22    O25       1.07399      .   S
    Zr0    O25       2.08116      .   S
    C22    O26       1.05594      .   S
    Zr2    O26       2.07351      .   S
    C27    O28       1.07372      .   S
    Zr2    O28       2.08037      .   S
    C27    O29       1.05539      .   S
    Zr0    O29       2.07149      .   S
    C27    O30       1.46228      .   S
    N6     O30       2.54231      .   S
    C27    O31       1.06160      .   S
    Zr0    O31       2.05352  1_655   S
