# CIF file generated by openbabel 2.4.90, see http://openbabel.sf.net
data_I
_chemical_name_common ''
_cell_length_a 5.7155
_cell_length_b 10.6165
_cell_length_c 16.195
_cell_angle_alpha 90.001
_cell_angle_beta 90.007
_cell_angle_gamma 92.9
_space_group_name_H-M_alt 'P 1'
_space_group_name_Hall 'P 1'
loop_
    _symmetry_equiv_pos_as_xyz
    x,y,z
loop_
    _atom_site_label
    _atom_site_type_symbol
    _atom_site_fract_x
    _atom_site_fract_y
    _atom_site_fract_z
    _atom_site_occupancy
    Zr0     Zr   0.75156   0.49518   0.43051   1.000
    Zr1     Zr   0.24806   0.00372   0.93049   1.000
    Zr2     Zr   0.24791   0.50397   0.56947   1.000
    Zr3     Zr   0.75151   0.99535   0.06951   1.000
    Zr4     Zr   0.34436   0.85166   0.16181   1.000
    Zr5     Zr   0.65521   0.64795   0.66183   1.000
    Zr6     Zr   0.65570   0.14809   0.83812   1.000
    Zr7     Zr   0.34456   0.35195   0.33804   1.000
    Zr8     Zr   0.43508   0.89151   0.08814   1.000
    Zr9     Zr   0.25307   0.94011   0.04752   1.000
    Zr10    Zr   0.06212   0.93049   0.09633   1.000
    Zr11    Zr   0.11624   0.87677   0.16830   1.000
    Zr12    Zr   0.56458   0.60822   0.58811   1.000
    Zr13    Zr   0.74658   0.55959   0.54753   1.000
    Zr14    Zr   0.93745   0.56907   0.59640   1.000
    Zr15    Zr   0.88327   0.62273   0.66839   1.000
    Zr16    Zr   0.56487   0.10827   0.91178   1.000
    Zr17    Zr   0.74679   0.05958   0.95237   1.000
    Zr18    Zr   0.93793   0.06936   0.90365   1.000
    Zr19    Zr   0.88382   0.12296   0.83164   1.000
    Zr20    Zr   0.43503   0.39143   0.41183   1.000
    Zr21    Zr   0.25298   0.43998   0.45243   1.000
    Zr22    Zr   0.06217   0.43055   0.40353   1.000
    Zr23    Zr   0.11652   0.37716   0.33147   1.000
    O24     O    0.34408   0.91581   0.06783   1.000
    O25     O    0.15760   0.93530   0.07192   1.000
    O26     O    0.25056   0.97191   0.98900   1.000
    O27     O    0.59330   0.94343   0.07882   1.000
    O28     O    0.90682   0.96292   0.08292   1.000
    O29     O    0.74915   0.02746   0.01094   1.000
    O30     O    0.38972   0.87159   0.12497   1.000
    O31     O    0.08918   0.90363   0.13232   1.000
    O32     O    0.23030   0.86421   0.16506   1.000
    O33     O    0.23054   0.36455   0.33475   1.000
    O34     O    0.08934   0.40385   0.36750   1.000
    O35     O    0.38979   0.37169   0.37494   1.000
    O36     O    0.90687   0.46286   0.41702   1.000
    O37     O    0.15758   0.43526   0.42798   1.000
    O38     O    0.59330   0.44331   0.42117   1.000
    O39     O    0.34401   0.41571   0.43213   1.000
    O40     O    0.74907   0.52739   0.48902   1.000
    O41     O    0.25044   0.47198   0.51095   1.000
    O42     O    0.65558   0.58391   0.56782   1.000
    O43     O    0.84202   0.56433   0.57196   1.000
    O44     O    0.40625   0.55610   0.57879   1.000
    O45     O    0.09268   0.53652   0.58294   1.000
    O46     O    0.60990   0.62808   0.62497   1.000
    O47     O    0.91036   0.59590   0.63240   1.000
    O48     O    0.76924   0.63534   0.66511   1.000
    O49     O    0.76976   0.13553   0.83488   1.000
    O50     O    0.91088   0.09616   0.86765   1.000
    O51     O    0.61029   0.12818   0.87495   1.000
    O52     O    0.09300   0.03654   0.91707   1.000
    O53     O    0.84236   0.06447   0.92801   1.000
    O54     O    0.40647   0.05599   0.92113   1.000
    O55     O    0.65583   0.08392   0.93208   1.000
    N56     N    0.43354   0.29266   0.71169   1.000
    O57     O    0.36264   0.36391   0.66110   1.000
    O58     O    0.51480   0.23772   0.75895   1.000
    N59     N    0.56692   0.20752   0.21160   1.000
    O60     O    0.63753   0.13605   0.16105   1.000
    O61     O    0.48560   0.26242   0.25887   1.000
    N62     N    0.56650   0.70701   0.28827   1.000
    O63     O    0.48526   0.76199   0.24099   1.000
    O64     O    0.63723   0.63561   0.33887   1.000
    N65     N    0.43317   0.79270   0.78824   1.000
    O66     O    0.36247   0.86393   0.83884   1.000
    O67     O    0.51437   0.73769   0.74098   1.000
loop_
    _geom_bond_atom_site_label_1
    _geom_bond_atom_site_label_2
    _geom_bond_distance
    _geom_bond_site_symmetry_2
    _ccdc_geom_bond_type
    Zr9    O24       0.67736      .   S
    Zr8    O24       0.67736      .   S
    Zr9    O25       0.67367      .   S
    Zr10   O25       0.67367      .   S
    Zr9    O26       1.00633  1_554   S
    Zr1    O26       1.00633  1_545   S
    Zr3    O27       1.04586      .   S
    Zr8    O27       1.04586      .   S
    Zr3    O28       0.99221      .   S
    Zr10   O28       0.99221  1_455   S
    Zr3    O29       1.00828  1_565   S
    Zr17   O29       1.00828  1_556   S
    Zr8    O30       0.68001      .   S
    Zr4    O30       0.68001      .   S
    Zr10   O31       0.67034      .   S
    Zr11   O31       0.67034      .   S
    Zr4    O32       0.67403      .   S
    Zr11   O32       0.67403      .   S
    Zr23   O33       0.67398      .   S
    Zr7    O33       0.67398      .   S
    Zr23   O34       0.67035      .   S
    Zr22   O34       0.67035      .   S
    Zr7    O35       0.67992      .   S
    Zr20   O35       0.67992      .   S
    Zr22   O36       0.99207  1_455   S
    Zr0    O36       0.99207      .   S
    Zr22   O37       0.67367      .   S
    Zr21   O37       0.67367      .   S
    Zr20   O38       1.04593      .   S
    Zr0    O38       1.04593      .   S
    Zr20   O39       0.67728      .   S
    Zr21   O39       0.67728      .   S
    Zr0    O40       1.00770      .   S
    Zr13   O40       1.00770      .   S
    Zr21   O41       1.00719      .   S
    Zr2    O41       1.00719      .   S
    Zr13   O42       0.67731      .   S
    Zr12   O42       0.67731      .   S
    Zr13   O43       0.67369      .   S
    Zr14   O43       0.67369      .   S
    Zr2    O44       1.04751      .   S
    Zr12   O44       1.04751      .   S
    Zr2    O45       0.99254      .   S
    Zr14   O45       0.99254  1_655   S
    Zr12   O46       0.67994      .   S
    Zr5    O46       0.67994      .   S
    Zr14   O47       0.67039      .   S
    Zr15   O47       0.67039      .   S
    Zr5    O48       0.67403      .   S
    Zr15   O48       0.67403      .   S
    Zr19   O49       0.67404      .   S
    Zr6    O49       0.67404      .   S
    Zr19   O50       0.67034      .   S
    Zr18   O50       0.67034      .   S
    Zr6    O51       0.67990      .   S
    Zr16   O51       0.67990      .   S
    Zr18   O52       0.99261  1_655   S
    Zr1    O52       0.99261      .   S
    Zr18   O53       0.67372      .   S
    Zr17   O53       0.67372      .   S
    Zr16   O54       1.04875      .   S
    Zr1    O54       1.04875      .   S
    Zr16   O55       0.67728      .   S
    Zr17   O55       0.67728      .   S
    N56    O57       1.19937      .   S
    Zr2    O57       2.22295      .   S
    N56    O58       1.08133      .   S
    Zr6    O58       1.80974      .   S
    N59    O60       1.19999      .   S
    Zr3    O60       2.22530  1_565   S
    N59    O61       1.08128      .   S
    Zr7    O61       1.80967      .   S
    N62    O63       1.08159      .   S
    Zr4    O63       1.81013      .   S
    N62    O64       1.20012      .   S
    Zr0    O64       2.22508      .   S
    N65    O66       1.19889      .   S
    Zr1    O66       2.22075  1_545   S
    N65    O67       1.08160      .   S
    Zr5    O67       1.81018      .   S
