# CIF file generated by openbabel 2.4.90, see http://openbabel.sf.net
data_I
_chemical_name_common ''
_cell_length_a 5.7155
_cell_length_b 10.6165
_cell_length_c 16.195
_cell_angle_alpha 90.001
_cell_angle_beta 90.007
_cell_angle_gamma 92.9
_space_group_name_H-M_alt 'P 1'
_space_group_name_Hall 'P 1'
loop_
    _symmetry_equiv_pos_as_xyz
    x,y,z
loop_
    _atom_site_label
    _atom_site_type_symbol
    _atom_site_fract_x
    _atom_site_fract_y
    _atom_site_fract_z
    _atom_site_occupancy
    C0      C    0.75156   0.49518   0.43051   1.000
    C1      C    0.24806   0.00372   0.93049   1.000
    C2      C    0.24791   0.50397   0.56947   1.000
    C3      C    0.75151   0.99535   0.06951   1.000
    C4      C    0.41045   0.69648   0.42801   1.000
    C5      C    0.22069   0.82909   0.32242   1.000
    C6      C    0.73830   0.71373   0.14760   1.000
    C7      C    0.90291   0.58284   0.25931   1.000
    C8      C    0.58948   0.80340   0.92796   1.000
    C9      C    0.77894   0.67059   0.82241   1.000
    C10     C    0.26116   0.78583   0.64760   1.000
    C11     C    0.09673   0.91684   0.75925   1.000
    C12     C    0.58964   0.30327   0.57195   1.000
    C13     C    0.77955   0.17071   0.67756   1.000
    C14     C    0.26178   0.28589   0.85236   1.000
    C15     C    0.09697   0.41673   0.74065   1.000
    C16     C    0.41072   0.19686   0.07187   1.000
    C17     C    0.22092   0.32950   0.17746   1.000
    C18     C    0.73878   0.21432   0.35228   1.000
    C19     C    0.90354   0.08348   0.24057   1.000
    C20     C    0.47796   0.70308   0.36508   1.000
    C21     C    0.37348   0.77693   0.30644   1.000
    C22     C    0.46369   0.78227   0.22562   1.000
    C23     C    0.66017   0.71249   0.20883   1.000
    C24     C    0.75301   0.63991   0.27099   1.000
    C25     C    0.34436   0.85166   0.16181   1.000
    C26     C    0.52181   0.79671   0.86504   1.000
    C27     C    0.62615   0.72276   0.80643   1.000
    C28     C    0.53592   0.71740   0.72561   1.000
    C29     C    0.33936   0.78712   0.70882   1.000
    C30     C    0.24666   0.85979   0.77095   1.000
    C31     C    0.65521   0.64795   0.66183   1.000
    C32     C    0.52207   0.29660   0.63487   1.000
    C33     C    0.62664   0.22280   0.69351   1.000
    C34     C    0.53642   0.21746   0.77432   1.000
    C35     C    0.33984   0.28714   0.79112   1.000
    C36     C    0.24691   0.35968   0.72897   1.000
    C37     C    0.65570   0.14809   0.83812   1.000
    C38     C    0.47832   0.20358   0.13478   1.000
    C39     C    0.37381   0.27740   0.19342   1.000
    C40     C    0.46403   0.28270   0.27424   1.000
    C41     C    0.66066   0.21305   0.29104   1.000
    C42     C    0.75358   0.14052   0.22890   1.000
    C43     C    0.34456   0.35195   0.33804   1.000
    C44     C    0.66434   0.63325   0.34841   1.000
    C45     C    0.43508   0.89151   0.08814   1.000
    C46     C    0.25307   0.94011   0.04752   1.000
    C47     C    0.06212   0.93049   0.09633   1.000
    C48     C    0.11624   0.87677   0.16830   1.000
    C49     C    0.33548   0.86658   0.84837   1.000
    C50     C    0.56458   0.60822   0.58811   1.000
    C51     C    0.74658   0.55959   0.54753   1.000
    C52     C    0.93745   0.56907   0.59640   1.000
    C53     C    0.88327   0.62273   0.66839   1.000
    C54     C    0.33558   0.36634   0.65155   1.000
    C55     C    0.56487   0.10827   0.91178   1.000
    C56     C    0.74679   0.05958   0.95237   1.000
    C57     C    0.93793   0.06936   0.90365   1.000
    C58     C    0.88382   0.12296   0.83164   1.000
    C59     C    0.66479   0.13382   0.15148   1.000
    C60     C    0.43503   0.39143   0.41183   1.000
    C61     C    0.25298   0.43998   0.45243   1.000
    C62     C    0.06217   0.43055   0.40353   1.000
    C63     C    0.11652   0.37716   0.33147   1.000
    O64     O    0.34408   0.91581   0.06783   1.000
    O65     O    0.15760   0.93530   0.07192   1.000
    O66     O    0.25056   0.97191   0.98900   1.000
    O67     O    0.59330   0.94343   0.07882   1.000
    O68     O    0.90682   0.96292   0.08292   1.000
    O69     O    0.70815   0.06458   0.11049   1.000
    O70     O    0.74915   0.02746   0.01094   1.000
    O71     O    0.44452   0.20022   0.10333   1.000
    O72     O    0.38972   0.87159   0.12497   1.000
    O73     O    0.08918   0.90363   0.13232   1.000
    O74     O    0.57156   0.16870   0.14313   1.000
    O75     O    0.42607   0.24049   0.16410   1.000
    O76     O    0.69923   0.71311   0.17822   1.000
    O77     O    0.70919   0.13717   0.19019   1.000
    O78     O    0.23030   0.86421   0.16506   1.000
    O79     O    0.40402   0.81696   0.19372   1.000
    O80     O    0.29737   0.30345   0.18544   1.000
    O81     O    0.41892   0.28005   0.23383   1.000
    O82     O    0.56193   0.74738   0.21722   1.000
    O83     O    0.70659   0.67620   0.23991   1.000
    O84     O    0.41859   0.77960   0.26603   1.000
    O85     O    0.82856   0.11200   0.23473   1.000
    O86     O    0.70712   0.17679   0.25997   1.000
    O87     O    0.82796   0.61138   0.26515   1.000
    O88     O    0.70867   0.63658   0.30970   1.000
    O89     O    0.56235   0.24788   0.28264   1.000
    O90     O    0.40429   0.31732   0.30614   1.000
    O91     O    0.69972   0.21368   0.32166   1.000
    O92     O    0.29708   0.80301   0.31443   1.000
    O93     O    0.42572   0.74000   0.33576   1.000
    O94     O    0.23054   0.36455   0.33475   1.000
    O95     O    0.08934   0.40385   0.36750   1.000
    O96     O    0.38979   0.37169   0.37494   1.000
    O97     O    0.57115   0.66817   0.35675   1.000
    O98     O    0.70795   0.56422   0.38946   1.000
    O99     O    0.44421   0.69978   0.39654   1.000
    O100    O    0.90687   0.46286   0.41702   1.000
    O101    O    0.15758   0.43526   0.42798   1.000
    O102    O    0.59330   0.44331   0.42117   1.000
    O103    O    0.34401   0.41571   0.43213   1.000
    O104    O    0.74907   0.52739   0.48902   1.000
    O105    O    0.25044   0.47198   0.51095   1.000
    O106    O    0.65558   0.58391   0.56782   1.000
    O107    O    0.84202   0.56433   0.57196   1.000
    O108    O    0.40625   0.55610   0.57879   1.000
    O109    O    0.09268   0.53652   0.58294   1.000
    O110    O    0.29175   0.43516   0.61051   1.000
    O111    O    0.55586   0.29993   0.60341   1.000
    O112    O    0.60990   0.62808   0.62497   1.000
    O113    O    0.91036   0.59590   0.63240   1.000
    O114    O    0.42883   0.33147   0.64321   1.000
    O115    O    0.57436   0.25970   0.66419   1.000
    O116    O    0.30026   0.78647   0.67821   1.000
    O117    O    0.29125   0.36301   0.69026   1.000
    O118    O    0.76924   0.63534   0.66511   1.000
    O119    O    0.59557   0.68267   0.69372   1.000
    O120    O    0.70310   0.19675   0.68554   1.000
    O121    O    0.58153   0.22013   0.73392   1.000
    O122    O    0.43764   0.75226   0.71722   1.000
    O123    O    0.29301   0.82346   0.73989   1.000
    O124    O    0.58103   0.72008   0.76602   1.000
    O125    O    0.17194   0.38820   0.73481   1.000
    O126    O    0.29337   0.32341   0.76005   1.000
    O127    O    0.17170   0.88832   0.76510   1.000
    O128    O    0.29107   0.86319   0.80966   1.000
    O129    O    0.43813   0.25230   0.78272   1.000
    O130    O    0.59606   0.18278   0.80622   1.000
    O131    O    0.30081   0.28651   0.82174   1.000
    O132    O    0.70255   0.69668   0.81442   1.000
    O133    O    0.57398   0.75974   0.83574   1.000
    O134    O    0.76976   0.13553   0.83488   1.000
    O135    O    0.91088   0.09616   0.86765   1.000
    O136    O    0.61029   0.12818   0.87495   1.000
    O137    O    0.42864   0.83165   0.85671   1.000
    O138    O    0.29177   0.93515   0.88943   1.000
    O139    O    0.55564   0.80005   0.89650   1.000
    O140    O    0.09300   0.03654   0.91707   1.000
    O141    O    0.84236   0.06447   0.92801   1.000
    O142    O    0.40647   0.05599   0.92113   1.000
    O143    O    0.65583   0.08392   0.93208   1.000
loop_
    _geom_bond_atom_site_label_1
    _geom_bond_atom_site_label_2
    _geom_bond_distance
    _geom_bond_site_symmetry_2
    _ccdc_geom_bond_type
    C46    O64       0.67736      .   S
    C45    O64       0.67736      .   S
    C46    O65       0.67367      .   S
    C47    O65       0.67367      .   S
    C46    O66       1.00633  1_554   S
    C1     O66       1.00633  1_545   S
    C3     O67       1.04586      .   S
    C45    O67       1.04586      .   S
    C3     O68       0.99221      .   S
    C47    O68       0.99221  1_455   S
    C3     O69       1.02987  1_565   S
    C59    O69       1.02987      .   S
    C3     O70       1.00828  1_565   S
    C56    O70       1.00828  1_556   S
    C16    O71       0.54537      .   S
    C38    O71       0.54537      .   S
    C45    O72       0.68001      .   S
    C25    O72       0.68001      .   S
    C47    O73       0.67034      .   S
    C48    O73       0.67034      .   S
    C38    O74       0.67772      .   S
    C59    O74       0.67772      .   S
    C38    O75       0.69285      .   S
    C39    O75       0.69285      .   S
    C6     O76       0.54367      .   S
    C23    O76       0.54367      .   S
    C59    O77       0.67656      .   S
    C42    O77       0.67656      .   S
    C25    O78       0.67403      .   S
    C48    O78       0.67403      .   S
    C25    O79       0.72909      .   S
    C22    O79       0.72909      .   S
    C17    O80       0.54436      .   S
    C39    O80       0.54436      .   S
    C39    O81       0.70338      .   S
    C40    O81       0.70338      .   S
    C23    O82       0.70141      .   S
    C22    O82       0.70141      .   S
    C23    O83       0.69460      .   S
    C24    O83       0.69460      .   S
    C22    O84       0.70343      .   S
    C21    O84       0.70343      .   S
    C42    O85       0.54533      .   S
    C19    O85       0.54533      .   S
    C42    O86       0.69450      .   S
    C41    O86       0.69450      .   S
    C7     O87       0.54533      .   S
    C24    O87       0.54533      .   S
    C24    O88       0.67651      .   S
    C44    O88       0.67651      .   S
    C40    O89       0.70141      .   S
    C41    O89       0.70141      .   S
    C40    O90       0.72894      .   S
    C43    O90       0.72894      .   S
    C41    O91       0.54367      .   S
    C18    O91       0.54367      .   S
    C21    O92       0.54437      .   S
    C5     O92       0.54437      .   S
    C21    O93       0.69293      .   S
    C20    O93       0.69293      .   S
    C63    O94       0.67398      .   S
    C43    O94       0.67398      .   S
    C63    O95       0.67035      .   S
    C62    O95       0.67035      .   S
    C43    O96       0.67992      .   S
    C60    O96       0.67992      .   S
    C44    O97       0.67771      .   S
    C20    O97       0.67771      .   S
    C44    O98       1.02941      .   S
    C0     O98       1.02941      .   S
    C20    O99       0.54538      .   S
    C4     O99       0.54538      .   S
    C62    O100      0.99207  1_455   S
    C0     O100      0.99207      .   S
    C62    O101      0.67367      .   S
    C61    O101      0.67367      .   S
    C60    O102      1.04593      .   S
    C0     O102      1.04593      .   S
    C60    O103      0.67728      .   S
    C61    O103      0.67728      .   S
    C0     O104      1.00770      .   S
    C51    O104      1.00770      .   S
    C61    O105      1.00719      .   S
    C2     O105      1.00719      .   S
    C51    O106      0.67731      .   S
    C50    O106      0.67731      .   S
    C51    O107      0.67369      .   S
    C52    O107      0.67369      .   S
    C2     O108      1.04751      .   S
    C50    O108      1.04751      .   S
    C2     O109      0.99254      .   S
    C52    O109      0.99254  1_655   S
    C2     O110      1.02797      .   S
    C54    O110      1.02797      .   S
    C12    O111      0.54537      .   S
    C32    O111      0.54537      .   S
    C50    O112      0.67994      .   S
    C31    O112      0.67994      .   S
    C52    O113      0.67039      .   S
    C53    O113      0.67039      .   S
    C32    O114      0.67771      .   S
    C54    O114      0.67771      .   S
    C32    O115      0.69288      .   S
    C33    O115      0.69288      .   S
    C10    O116      0.54367      .   S
    C29    O116      0.54367      .   S
    C54    O117      0.67653      .   S
    C36    O117      0.67653      .   S
    C31    O118      0.67403      .   S
    C53    O118      0.67403      .   S
    C31    O119      0.72913      .   S
    C28    O119      0.72913      .   S
    C13    O120      0.54438      .   S
    C33    O120      0.54438      .   S
    C33    O121      0.70337      .   S
    C34    O121      0.70337      .   S
    C29    O122      0.70142      .   S
    C28    O122      0.70142      .   S
    C29    O123      0.69460      .   S
    C30    O123      0.69460      .   S
    C28    O124      0.70339      .   S
    C27    O124      0.70339      .   S
    C36    O125      0.54532      .   S
    C15    O125      0.54532      .   S
    C36    O126      0.69453      .   S
    C35    O126      0.69453      .   S
    C11    O127      0.54533      .   S
    C30    O127      0.54533      .   S
    C30    O128      0.67656      .   S
    C49    O128      0.67656      .   S
    C34    O129      0.70139      .   S
    C35    O129      0.70139      .   S
    C34    O130      0.72895      .   S
    C37    O130      0.72895      .   S
    C35    O131      0.54368      .   S
    C14    O131      0.54368      .   S
    C27    O132      0.54438      .   S
    C9     O132      0.54438      .   S
    C27    O133      0.69294      .   S
    C26    O133      0.69294      .   S
    C58    O134      0.67404      .   S
    C37    O134      0.67404      .   S
    C58    O135      0.67034      .   S
    C57    O135      0.67034      .   S
    C37    O136      0.67990      .   S
    C55    O136      0.67990      .   S
    C49    O137      0.67773      .   S
    C26    O137      0.67773      .   S
    C49    O138      1.02614      .   S
    C1     O138      1.02614  1_545   S
    C26    O139      0.54538      .   S
    C8     O139      0.54538      .   S
    C57    O140      0.99261  1_655   S
    C1     O140      0.99261      .   S
    C57    O141      0.67372      .   S
    C56    O141      0.67372      .   S
    C55    O142      1.04875      .   S
    C1     O142      1.04875      .   S
    C55    O143      0.67728      .   S
    C56    O143      0.67728      .   S
