# CIF file generated by openbabel 2.4.90, see http://openbabel.sf.net
data_I
_chemical_name_common ''
_cell_length_a 13.215
_cell_length_b 17.408
_cell_length_c 17.409
_cell_angle_alpha 81.734
_cell_angle_beta 67.678
_cell_angle_gamma 67.69
_space_group_name_H-M_alt 'P 1'
_space_group_name_Hall 'P 1'
loop_
    _symmetry_equiv_pos_as_xyz
    x,y,z
loop_
    _atom_site_label
    _atom_site_type_symbol
    _atom_site_fract_x
    _atom_site_fract_y
    _atom_site_fract_z
    _atom_site_occupancy
    Zr0     Zr   0.36256   0.24984   0.77479   1.000
    Zr1     Zr   0.88730   0.25008   0.72528   1.000
    Zr2     Zr   0.63736   0.22527   0.75014   1.000
    Zr3     Zr   0.11274   0.27477   0.74989   1.000
    Zr4     Zr   0.63743   0.75017   0.22520   1.000
    Zr5     Zr   0.11266   0.74990   0.27476   1.000
    Zr6     Zr   0.36259   0.77475   0.24988   1.000
    Zr7     Zr   0.88722   0.72520   0.25016   1.000
    N8      N    0.99998   0.49999   0.50002   1.000
    O9      O    0.95999   0.59489   0.39648   1.000
    O10     O    0.03991   0.60355   0.40510   1.000
    O11     O    0.96004   0.39643   0.59495   1.000
    O12     O    0.03997   0.40509   0.60356   1.000
    N13     N    1.00000   0.50000   0.99999   1.000
    O14     O    0.05499   0.40509   0.89637   1.000
    O15     O    0.85650   0.60364   0.09492   1.000
    O16     O    0.94500   0.59491   0.10362   1.000
    O17     O    0.14349   0.39635   0.90508   1.000
    N18     N    0.99996   0.00001   0.50002   1.000
    O19     O    0.94500   0.10362   0.59493   1.000
    O20     O    0.85646   0.09495   0.60365   1.000
    O21     O    0.14348   0.90507   0.39638   1.000
    O22     O    0.05494   0.89638   0.40510   1.000
    N23     N    0.49999   0.00001   0.99998   1.000
    O24     O    0.54863   0.89647   0.09487   1.000
    O25     O    0.45139   0.90509   0.10354   1.000
    O26     O    0.45135   0.10354   0.90509   1.000
    O27     O    0.54857   0.09493   0.89628   1.000
    N28     N    0.99999   0.17064   0.82942   1.000
    O29     O    0.97181   0.19050   0.80339   1.000
    N30     N    0.67047   0.32955   0.82952   1.000
    O31     O    0.66219   0.30348   0.80968   1.000
    N32     N    0.32951   0.17051   0.67040   1.000
    O33     O    0.27532   0.19657   0.69027   1.000
    N34     N    0.49995   0.32941   0.67066   1.000
    O35     O    0.53430   0.30338   0.69053   1.000
    N36     N    0.67046   0.82947   0.32955   1.000
    O37     O    0.72465   0.80340   0.30970   1.000
    N38     N    0.99997   0.82936   0.17063   1.000
    O39     O    0.02815   0.80950   0.19666   1.000
    N40     N    0.32947   0.67048   0.17052   1.000
    O41     O    0.27527   0.69034   0.19658   1.000
    N42     N    0.50002   0.67059   0.32934   1.000
    O43     O    0.46566   0.69663   0.30948   1.000
loop_
    _geom_bond_atom_site_label_1
    _geom_bond_atom_site_label_2
    _geom_bond_distance
    _geom_bond_site_symmetry_2
    _ccdc_geom_bond_type
    N8     O9        2.33714      .   S
    Zr7    O9        3.33194      .   S
    N8     O10       2.33721  1_655   S
    Zr5    O10       3.33227      .   S
    N8     O11       2.33718      .   S
    Zr1    O11       3.33224      .   S
    N8     O12       2.33720  1_655   S
    Zr3    O12       3.33208      .   S
    N13    O14       2.33698  1_655   S
    Zr3    O14       3.33191      .   S
    N13    O15       2.33698  1_556   S
    Zr4    O15       3.33186      .   S
    N13    O16       2.33725  1_556   S
    Zr7    O16       3.33228      .   S
    N13    O17       2.33683  1_655   S
    Zr0    O17       3.33166      .   S
    N18    O19       2.33697      .   S
    Zr1    O19       3.33243      .   S
    N18    O20       2.33702      .   S
    Zr2    O20       3.33187      .   S
    N18    O21       2.33702  1_645   S
    Zr6    O21       3.33195      .   S
    N18    O22       2.33723  1_645   S
    Zr5    O22       3.33232      .   S
    N23    O24       2.33692  1_546   S
    Zr4    O24       3.33217      .   S
    N23    O25       2.33722  1_546   S
    Zr6    O25       3.33223      .   S
    N23    O26       2.33695      .   S
    Zr0    O26       3.33175      .   S
    N23    O27       2.33869      .   S
    Zr2    O27       3.33034      .   S
    N28    O29       0.67004      .   S
    Zr1    O29       2.01011      .   S
    N30    O31       0.66988      .   S
    Zr2    O31       2.00965      .   S
    N32    O33       0.66985      .   S
    Zr3    O33       2.00955      .   S
    N34    O35       0.67019      .   S
    Zr2    O35       2.01058      .   S
    N36    O37       0.66973      .   S
    Zr7    O37       2.00920      .   S
    N38    O39       0.67002  1_655   S
    Zr5    O39       2.01005      .   S
    N40    O41       0.66981      .   S
    Zr5    O41       2.00942      .   S
    N42    O43       0.67020      .   S
    Zr6    O43       2.01059      .   S
