# CIF file generated by openbabel 2.4.90, see http://openbabel.sf.net
data_I
_chemical_name_common ''
_cell_length_a 18.402
_cell_length_b 18.418
_cell_length_c 18.412
_cell_angle_alpha 60.334
_cell_angle_beta 60.264
_cell_angle_gamma 60.268
_space_group_name_H-M_alt 'P 1'
_space_group_name_Hall 'P 1'
loop_
    _symmetry_equiv_pos_as_xyz
    x,y,z
loop_
    _atom_site_label
    _atom_site_type_symbol
    _atom_site_fract_x
    _atom_site_fract_y
    _atom_site_fract_z
    _atom_site_occupancy
    C0      C    0.61132   0.88907   0.38903   1.000
    C1      C    0.61104   0.88853   0.11086   1.000
    C2      C    0.11078   0.38860   0.61104   1.000
    C3      C    0.11144   0.38877   0.88919   1.000
    C4      C    0.38869   0.11092   0.61098   1.000
    C5      C    0.38897   0.11147   0.88915   1.000
    C6      C    0.88923   0.61140   0.38897   1.000
    C7      C    0.88857   0.61122   0.11082   1.000
    C8      C    0.61080   0.61107   0.38873   1.000
    C9      C    0.88920   0.88903   0.11187   1.000
    C10     C    0.38921   0.38892   0.61128   1.000
    C11     C    0.11080   0.11096   0.88813   1.000
