# CIF file generated by openbabel 2.4.90, see http://openbabel.sf.net
data_I
_chemical_name_common ''
_cell_length_a 18.402
_cell_length_b 18.418
_cell_length_c 18.412
_cell_angle_alpha 60.334
_cell_angle_beta 60.264
_cell_angle_gamma 60.268
_space_group_name_H-M_alt 'P 1'
_space_group_name_Hall 'P 1'
loop_
    _symmetry_equiv_pos_as_xyz
    x,y,z
loop_
    _atom_site_label
    _atom_site_type_symbol
    _atom_site_fract_x
    _atom_site_fract_y
    _atom_site_fract_z
    _atom_site_occupancy
    Zr0     Zr   0.88045   0.70690   0.20682   1.000
    Zr1     Zr   0.29314   0.11983   0.79320   1.000
    Zr2     Zr   0.11956   0.29309   0.79319   1.000
    Zr3     Zr   0.70687   0.88017   0.20681   1.000
    Zr4     Zr   0.70678   0.70681   0.38023   1.000
    Zr5     Zr   0.70592   0.70628   0.20627   1.000
    Zr6     Zr   0.29322   0.29318   0.61978   1.000
    Zr7     Zr   0.29409   0.29371   0.79370   1.000
    Zr8     Zr   0.61132   0.88907   0.38903   1.000
    Zr9     Zr   0.61104   0.88853   0.11086   1.000
    Zr10    Zr   0.11078   0.38860   0.61104   1.000
    Zr11    Zr   0.11144   0.38877   0.88919   1.000
    Zr12    Zr   0.38869   0.11092   0.61098   1.000
    Zr13    Zr   0.38897   0.11147   0.88915   1.000
    Zr14    Zr   0.88923   0.61140   0.38897   1.000
    Zr15    Zr   0.88857   0.61122   0.11082   1.000
    Zr16    Zr   0.61080   0.61107   0.38873   1.000
    Zr17    Zr   0.88920   0.88903   0.11187   1.000
    Zr18    Zr   0.38921   0.38892   0.61128   1.000
    Zr19    Zr   0.11080   0.11096   0.88813   1.000
    Zr20    Zr   0.63343   0.80541   0.42850   1.000
    Zr21    Zr   0.63348   0.92855   0.30534   1.000
    Zr22    Zr   0.63247   0.80485   0.13297   1.000
    Zr23    Zr   0.63385   0.92795   0.13290   1.000
    Zr24    Zr   0.92880   0.80537   0.13417   1.000
    Zr25    Zr   0.19459   0.36649   0.57155   1.000
    Zr26    Zr   0.07115   0.36633   0.69474   1.000
    Zr27    Zr   0.19525   0.36714   0.86713   1.000
    Zr28    Zr   0.07189   0.36610   0.86710   1.000
    Zr29    Zr   0.19461   0.07148   0.86591   1.000
    Zr30    Zr   0.36657   0.19458   0.57151   1.000
    Zr31    Zr   0.36652   0.07145   0.69467   1.000
    Zr32    Zr   0.36754   0.19514   0.86704   1.000
    Zr33    Zr   0.36616   0.07204   0.86711   1.000
    Zr34    Zr   0.07120   0.19463   0.86584   1.000
    Zr35    Zr   0.80541   0.63350   0.42846   1.000
    Zr36    Zr   0.92886   0.63366   0.30527   1.000
    Zr37    Zr   0.80476   0.63285   0.13288   1.000
    Zr38    Zr   0.92812   0.63389   0.13286   1.000
    Zr39    Zr   0.80540   0.92852   0.13410   1.000
    Zr40    Zr   0.74995   0.74990   0.24991   1.000
    Zr41    Zr   0.63324   0.63337   0.42825   1.000
    Zr42    Zr   0.63249   0.63301   0.30501   1.000
    Zr43    Zr   0.25006   0.25009   0.75010   1.000
    Zr44    Zr   0.36676   0.36662   0.57176   1.000
    Zr45    Zr   0.36751   0.36698   0.69500   1.000
    O46     O    0.90834   0.62255   0.12184   1.000
    O47     O    0.84666   0.62203   0.12185   1.000
    O48     O    0.62244   0.90824   0.12188   1.000
    O49     O    0.62175   0.84669   0.12191   1.000
    O50     O    0.84730   0.90877   0.12298   1.000
    O51     O    0.90900   0.84720   0.12302   1.000
    O52     O    0.90428   0.67040   0.16984   1.000
    O53     O    0.75534   0.66957   0.16958   1.000
    O54     O    0.67036   0.90406   0.16986   1.000
    O55     O    0.66919   0.75557   0.16962   1.000
    O56     O    0.75613   0.90434   0.17045   1.000
    O57     O    0.90463   0.75613   0.17049   1.000
    O58     O    0.66921   0.66965   0.25564   1.000
    O59     O    0.72841   0.81503   0.22836   1.000
    O60     O    0.67018   0.90436   0.25607   1.000
    O61     O    0.90465   0.67028   0.25604   1.000
    O62     O    0.72837   0.72835   0.31507   1.000
    O63     O    0.62165   0.62204   0.34687   1.000
    O64     O    0.90904   0.62253   0.34712   1.000
    O65     O    0.62240   0.90881   0.34718   1.000
    O66     O    0.67001   0.67009   0.40424   1.000
    O67     O    0.75610   0.67015   0.40435   1.000
    O68     O    0.67011   0.75611   0.40436   1.000
    O69     O    0.62202   0.62222   0.40849   1.000
    O70     O    0.84732   0.62245   0.40871   1.000
    O71     O    0.62237   0.84724   0.40876   1.000
    O72     O    0.37763   0.15275   0.59124   1.000
    O73     O    0.32990   0.24388   0.59564   1.000
    O74     O    0.15269   0.37754   0.59130   1.000
    O75     O    0.24391   0.32984   0.59566   1.000
    O76     O    0.37798   0.37777   0.59152   1.000
    O77     O    0.32999   0.32990   0.59577   1.000
    O78     O    0.37761   0.09118   0.65282   1.000
    O79     O    0.09096   0.37746   0.65289   1.000
    O80     O    0.37836   0.37795   0.65314   1.000
    O81     O    0.27164   0.27164   0.68494   1.000
    O82     O    0.32983   0.09564   0.74394   1.000
    O83     O    0.09535   0.32971   0.74397   1.000
    O84     O    0.33080   0.33035   0.74435   1.000
    O85     O    0.27160   0.18496   0.77165   1.000
    O86     O    0.09538   0.24386   0.82951   1.000
    O87     O    0.09572   0.32960   0.83014   1.000
    O88     O    0.24387   0.09565   0.82955   1.000
    O89     O    0.32965   0.09593   0.83016   1.000
    O90     O    0.33081   0.24442   0.83037   1.000
    O91     O    0.24467   0.33043   0.83041   1.000
    O92     O    0.09100   0.15279   0.87699   1.000
    O93     O    0.15271   0.09122   0.87702   1.000
    O94     O    0.37825   0.15330   0.87810   1.000
    O95     O    0.09166   0.37744   0.87815   1.000
    O96     O    0.37756   0.09176   0.87813   1.000
    O97     O    0.15334   0.37796   0.87816   1.000
    O98     O    0.81520   0.72840   0.22836   1.000
    O99     O    0.72793   0.72809   0.22809   1.000
    O100    O    0.18481   0.27159   0.77164   1.000
    O101    O    0.27207   0.27190   0.77190   1.000
    N102    N    0.50000   1.00000   0.50000   1.000
    O103    O    0.45874   0.04113   0.54116   1.000
    O104    O    0.54127   0.95886   0.45885   1.000
    N105    N    0.00000   1.00000   0.99996   1.000
    O106    O    0.95892   0.95884   0.04149   1.000
    O107    O    0.04109   0.04115   0.95847   1.000
    N108    N    0.00000   0.50000   0.50000   1.000
    O109    O    0.95893   0.54131   0.45882   1.000
    O110    O    0.04108   0.45869   0.54118   1.000
    N111    N    0.00000   0.50000   0.00000   1.000
    O112    O    0.04134   0.45873   0.95893   1.000
    O113    O    0.95867   0.54126   0.04108   1.000
    N114    N    0.50000   1.00000   0.00000   1.000
    O115    O    0.45881   0.04135   0.95891   1.000
    O116    O    0.54119   0.95864   0.04110   1.000
    N117    N    0.50000   0.50000   0.50001   1.000
    O118    O    0.54109   0.54119   0.45873   1.000
    O119    O    0.45892   0.45880   0.54128   1.000
loop_
    _geom_bond_atom_site_label_1
    _geom_bond_atom_site_label_2
    _geom_bond_distance
    _geom_bond_site_symmetry_2
    _ccdc_geom_bond_type
    Zr15   O46       0.63852      .   S
    Zr38   O46       0.63852      .   S
    Zr15   O47       0.63865      .   S
    Zr37   O47       0.63865      .   S
    Zr9    O48       0.63855      .   S
    Zr23   O48       0.63855      .   S
    Zr9    O49       0.63867      .   S
    Zr22   O49       0.63867      .   S
    Zr17   O50       0.63851      .   S
    Zr39   O50       0.63851      .   S
    Zr17   O51       0.63854      .   S
    Zr24   O51       0.63854      .   S
    Zr38   O52       0.98612      .   S
    Zr0    O52       0.98612      .   S
    Zr37   O53       0.98670      .   S
    Zr5    O53       0.98670      .   S
    Zr23   O54       0.98585      .   S
    Zr3    O54       0.98585      .   S
    Zr22   O55       0.98673      .   S
    Zr5    O55       0.98673      .   S
    Zr39   O56       0.98565      .   S
    Zr3    O56       0.98565      .   S
    Zr24   O57       0.98597      .   S
    Zr0    O57       0.98597      .   S
    Zr5    O58       0.98682      .   S
    Zr42   O58       0.98682      .   S
    Zr3    O59       0.98330      .   S
    Zr40   O59       0.98330      .   S
    Zr3    O60       0.98552      .   S
    Zr21   O60       0.98552      .   S
    Zr0    O61       0.98597      .   S
    Zr36   O61       0.98597      .   S
    Zr40   O62       0.98333      .   S
    Zr4    O62       0.98333      .   S
    Zr42   O63       0.63870      .   S
    Zr16   O63       0.63870      .   S
    Zr36   O64       0.63858      .   S
    Zr14   O64       0.63858      .   S
    Zr21   O65       0.63856      .   S
    Zr8    O65       0.63856      .   S
    Zr4    O66       0.98583      .   S
    Zr41   O66       0.98583      .   S
    Zr4    O67       0.98579      .   S
    Zr35   O67       0.98579      .   S
    Zr4    O68       0.98565      .   S
    Zr20   O68       0.98565      .   S
    Zr16   O69       0.63852      .   S
    Zr41   O69       0.63852      .   S
    Zr14   O70       0.63855      .   S
    Zr35   O70       0.63855      .   S
    Zr8    O71       0.63854      .   S
    Zr20   O71       0.63854      .   S
    Zr30   O72       0.63854      .   S
    Zr12   O72       0.63854      .   S
    Zr30   O73       0.98565      .   S
    Zr6    O73       0.98565      .   S
    Zr25   O74       0.63855      .   S
    Zr10   O74       0.63855      .   S
    Zr25   O75       0.98579      .   S
    Zr6    O75       0.98579      .   S
    Zr44   O76       0.63852      .   S
    Zr18   O76       0.63852      .   S
    Zr44   O77       0.98583      .   S
    Zr6    O77       0.98583      .   S
    Zr12   O78       0.63856      .   S
    Zr31   O78       0.63856      .   S
    Zr10   O79       0.63858      .   S
    Zr26   O79       0.63858      .   S
    Zr18   O80       0.63870      .   S
    Zr45   O80       0.63870      .   S
    Zr6    O81       0.98333      .   S
    Zr43   O81       0.98333      .   S
    Zr31   O82       0.98552      .   S
    Zr1    O82       0.98552      .   S
    Zr26   O83       0.98597      .   S
    Zr2    O83       0.98597      .   S
    Zr45   O84       0.98673      .   S
    Zr7    O84       0.98673      .   S
    Zr43   O85       0.98330      .   S
    Zr1    O85       0.98330      .   S
    Zr2    O86       0.98597      .   S
    Zr34   O86       0.98597      .   S
    Zr2    O87       0.98574      .   S
    Zr28   O87       0.98574      .   S
    Zr1    O88       0.98565      .   S
    Zr29   O88       0.98565      .   S
    Zr1    O89       0.98587      .   S
    Zr33   O89       0.98587      .   S
    Zr7    O90       0.98693      .   S
    Zr32   O90       0.98693      .   S
    Zr7    O91       0.98692      .   S
    Zr27   O91       0.98692      .   S
    Zr34   O92       0.63854      .   S
    Zr19   O92       0.63854      .   S
    Zr29   O93       0.63851      .   S
    Zr19   O93       0.63851      .   S
    Zr32   O94       0.63868      .   S
    Zr13   O94       0.63868      .   S
    Zr28   O95       0.63887      .   S
    Zr11   O95       0.63887      .   S
    Zr33   O96       0.63852      .   S
    Zr13   O96       0.63852      .   S
    Zr27   O97       0.63865      .   S
    Zr11   O97       0.63865      .   S
    Zr40   O98       0.98350      .   S
    Zr0    O98       0.98350      .   S
    Zr40   O99       0.98460      .   S
    Zr5    O99       0.98460      .   S
    Zr43   O100      0.98350      .   S
    Zr2    O100      0.98350      .   S
    Zr43   O101      0.98430      .   S
    Zr7    O101      0.98430      .   S
    N102   O103      1.07314  1_565   S
    Zr12   O103      1.82066      .   S
    N102   O104      1.07314      .   S
    Zr8    O104      1.82065      .   S
    N105   O106      1.07331  1_456   S
    Zr17   O106      1.82099      .   S
    N105   O107      1.07330  1_565   S
    Zr19   O107      1.82098      .   S
    N108   O109      1.07335  1_455   S
    Zr14   O109      1.82112      .   S
    N108   O110      1.07336      .   S
    Zr10   O110      1.82113      .   S
    N111   O112      1.07377  1_554   S
    Zr11   O112      1.82182      .   S
    N111   O113      1.07378  1_455   S
    Zr15   O113      1.82184      .   S
    N114   O115      1.07375  1_564   S
    Zr13   O115      1.82177      .   S
    N114   O116      1.07377      .   S
    Zr9    O116      1.82178      .   S
    N117   O118      1.07380      .   S
    Zr16   O118      1.82179      .   S
    N117   O119      1.07380      .   S
    Zr18   O119      1.82178      .   S
