# CIF file generated by openbabel 2.4.90, see http://openbabel.sf.net
data_I
_chemical_name_common ''
_cell_length_a 23.285
_cell_length_b 13.976
_cell_length_c 15.782
_cell_angle_alpha 96.063
_cell_angle_beta 89.996
_cell_angle_gamma 89.977
_space_group_name_H-M_alt 'P 1'
_space_group_name_Hall 'P 1'
loop_
    _symmetry_equiv_pos_as_xyz
    x,y,z
loop_
    _atom_site_label
    _atom_site_type_symbol
    _atom_site_fract_x
    _atom_site_fract_y
    _atom_site_fract_z
    _atom_site_occupancy
    Lv0     Lv   0.04752   0.70335   0.50570   1.000
    Lv1     Lv   0.79752   0.29662   0.49425   1.000
    Lv2     Lv   0.54736   0.79833   0.99535   1.000
    Lv3     Lv   0.54752   0.70335   0.50570   1.000
    Lv4     Lv   0.04736   0.79833   0.99535   1.000
    Lv5     Lv   0.29753   0.29662   0.49425   1.000
    Lv6     Lv   0.79736   0.20133   0.00294   1.000
    Lv7     Lv   0.29736   0.20133   0.00294   1.000
