# CIF file generated by openbabel 2.4.90, see http://openbabel.sf.net
data_I
_chemical_name_common ''
_cell_length_a 23.285
_cell_length_b 13.976
_cell_length_c 15.782
_cell_angle_alpha 96.063
_cell_angle_beta 89.996
_cell_angle_gamma 89.977
_space_group_name_H-M_alt 'P 1'
_space_group_name_Hall 'P 1'
loop_
    _symmetry_equiv_pos_as_xyz
    x,y,z
loop_
    _atom_site_label
    _atom_site_type_symbol
    _atom_site_fract_x
    _atom_site_fract_y
    _atom_site_fract_z
    _atom_site_occupancy
    H0      H    0.40346   0.29839   0.49260   1.000
    H1      H    0.90346   0.29839   0.49260   1.000
    H2      H    0.19159   0.29489   0.49589   1.000
    H3      H    0.69158   0.29489   0.49589   1.000
    H4      H    0.13760   0.55717   0.00000   1.000
    H5      H    0.63760   0.55717   0.00000   1.000
    H6      H    0.14051   0.73402   0.01287   1.000
    H7      H    0.64050   0.73402   0.01287   1.000
    H8      H    0.45528   0.72824   0.99034   1.000
    H9      H    0.95528   0.72824   0.99034   1.000
    H10     H    0.45978   0.55175   0.99514   1.000
    H11     H    0.95977   0.55175   0.99514   1.000
    H12     H    0.12275   0.85209   0.91352   1.000
    H13     H    0.62274   0.85209   0.91352   1.000
    H14     H    0.11782   0.03075   0.90750   1.000
    H15     H    0.61782   0.03075   0.90753   1.000
    H16     H    0.47390   0.05614   0.06132   1.000
    H17     H    0.97390   0.05614   0.06132   1.000
    H18     H    0.47069   0.87804   0.07173   1.000
    H19     H    0.97068   0.87804   0.07173   1.000
    H20     H    0.15346   0.70163   0.50727   1.000
    H21     H    0.65345   0.70163   0.50727   1.000
    H22     H    0.44158   0.70505   0.50407   1.000
    H23     H    0.94157   0.70505   0.50407   1.000
    H24     H    0.38763   0.44269   0.98206   1.000
    H25     H    0.88762   0.44269   0.98206   1.000
    H26     H    0.39053   0.26584   0.98711   1.000
    H27     H    0.89052   0.26584   0.98711   1.000
    H28     H    0.20529   0.27190   0.00959   1.000
    H29     H    0.70529   0.27190   0.00959   1.000
    H30     H    0.20982   0.44837   0.00000   1.000
    H31     H    0.70981   0.44837   0.00000   1.000
    H32     H    0.37273   0.14778   0.08644   1.000
    H33     H    0.87272   0.14778   0.08644   1.000
    H34     H    0.36777   0.96913   0.09244   1.000
    H35     H    0.86777   0.96913   0.09240   1.000
    H36     H    0.22389   0.94397   0.93864   1.000
    H37     H    0.72388   0.94397   0.93864   1.000
    H38     H    0.22071   0.12207   0.92820   1.000
    H39     H    0.72070   0.12207   0.92822   1.000
    C40     C    0.26659   0.29807   0.41692   1.000
    C41     C    0.76658   0.29807   0.41692   1.000
    C42     C    0.32727   0.29872   0.41592   1.000
    C43     C    0.82726   0.29872   0.41592   1.000
    C44     C    0.35661   0.29757   0.49336   1.000
    C45     C    0.85660   0.29757   0.49336   1.000
    C46     C    0.32847   0.29552   0.57166   1.000
    C47     C    0.82847   0.29552   0.57166   1.000
    C48     C    0.26780   0.29420   0.57247   1.000
    C49     C    0.76780   0.29420   0.57247   1.000
    C50     C    0.23844   0.29564   0.49515   1.000
    C51     C    0.73843   0.29564   0.49515   1.000
    C52     C    0.09821   0.59749   0.01134   1.000
    C53     C    0.59820   0.59749   0.01134   1.000
    C54     C    0.09959   0.69624   0.00769   1.000
    C55     C    0.59958   0.69624   0.00769   1.000
    C56     C    0.04792   0.74582   0.99969   1.000
    C57     C    0.54791   0.74582   0.99969   1.000
    C58     C    0.49662   0.69329   0.99640   1.000
    C59     C    0.99662   0.69329   0.99640   1.000
    C60     C    0.99887   0.59449   0.99872   1.000
    C61     C    0.49887   0.59448   0.99872   1.000
    C62     C    0.04726   0.85051   0.99435   1.000
    C63     C    0.54725   0.85051   0.99435   1.000
    C64     C    0.08925   0.89469   0.94785   1.000
    C65     C    0.58924   0.89469   0.94785   1.000
    C66     C    0.08685   0.99340   0.94402   1.000
    C67     C    0.58684   0.99340   0.94400   1.000
    C68     C    0.00537   0.00733   0.02914   1.000
    C69     C    0.50536   0.00733   0.02914   1.000
    C70     C    0.00422   0.90895   0.03486   1.000
    C71     C    0.50421   0.90895   0.03486   1.000
    C72     C    0.01659   0.70189   0.58300   1.000
    C73     C    0.51658   0.70189   0.58303   1.000
    C74     C    0.07727   0.70127   0.58404   1.000
    C75     C    0.57726   0.70127   0.58404   1.000
    C76     C    0.10661   0.70243   0.50659   1.000
    C77     C    0.60660   0.70243   0.50659   1.000
    C78     C    0.07847   0.70447   0.42830   1.000
    C79     C    0.57846   0.70447   0.42830   1.000
    C80     C    0.01780   0.70577   0.42748   1.000
    C81     C    0.51779   0.70577   0.42748   1.000
    C82     C    0.48843   0.70431   0.50481   1.000
    C83     C    0.98842   0.70431   0.50481   1.000
    C84     C    0.34824   0.40243   0.98864   1.000
    C85     C    0.84823   0.40243   0.98864   1.000
    C86     C    0.34961   0.30368   0.99229   1.000
    C87     C    0.84960   0.30368   0.99229   1.000
    C88     C    0.29793   0.25418   0.00000   1.000
    C89     C    0.79792   0.25417   0.00000   1.000
    C90     C    0.24665   0.30678   0.00000   1.000
    C91     C    0.74664   0.30678   0.00000   1.000
    C92     C    0.24890   0.40558   0.00000   1.000
    C93     C    0.74889   0.40558   0.00000   1.000
    C94     C    0.29726   0.14948   0.00000   1.000
    C95     C    0.79726   0.14948   0.00000   1.000
    C96     C    0.33923   0.10523   0.05211   1.000
    C97     C    0.83922   0.10523   0.05211   1.000
    C98     C    0.33681   0.00000   0.05594   1.000
    C99     C    0.83680   0.00000   0.05594   1.000
    C100    C    0.25536   0.99273   0.97082   1.000
    C101    C    0.75535   0.99273   0.97082   1.000
    C102    C    0.25422   0.09111   0.96510   1.000
    C103    C    0.75421   0.09111   0.96510   1.000
    N104    N    0.04876   0.54693   0.00602   1.000
    N105    N    0.54876   0.54693   0.00602   1.000
    N106    N    0.04595   0.04932   0.98451   1.000
    N107    N    0.54594   0.04931   0.98450   1.000
    N108    N    0.29879   0.45306   0.99394   1.000
    N109    N    0.79879   0.45306   0.99394   1.000
    N110    N    0.29591   0.95068   0.01546   1.000
    N111    N    0.79590   0.95068   0.01546   1.000
loop_
    _geom_bond_atom_site_label_1
    _geom_bond_atom_site_label_2
    _geom_bond_distance
    _geom_bond_site_symmetry_2
    _ccdc_geom_bond_type
    C88    C94       1.46326      .   S
    C88    C90       1.40207      .   S
    C88    C86       1.39996  1_554   S
    H4     C52       1.08130      .   S
    H5     C53       1.08132      .   S
    C95    C89       1.46326      .   S
    C95    C97       1.45633      .   S
    C95    C103      1.37081  1_554   S
    C94    C96       1.45635      .   S
    C94    C102      1.37082  1_554   S
    C93    C91       1.38180      .   S
    C93    H31       1.08871      .   S
    C93    N109      1.34662  1_554   S
    C92    C90       1.38180      .   S
    C92    H30       1.08871      .   S
    C92    N108      1.34661  1_554   S
    C91    C89       1.40207      .   S
    C91    H29       1.09716      .   S
    C90    H28       1.09717      .   S
    C89    C87       1.39997  1_554   S
    N105   C53       1.34914      .   S
    N105   C61       1.34910  1_554   S
    N104   C52       1.34914      .   S
    N104   C60       1.34912  1_454   S
    C54    C52       1.38771      .   S
    C54    H6        1.08851      .   S
    C54    C56       1.40055  1_554   S
    C55    C53       1.38770      .   S
    C55    H7        1.08850      .   S
    C55    C57       1.40056  1_554   S
    N110   C98       1.30297  1_565   S
    N110   C100      1.34923  1_554   S
    N111   C99       1.30297  1_565   S
    N111   C101      1.34923  1_554   S
    C68    C70       1.38769  1_545   S
    C68    H17       1.08942  1_455   S
    C68    N106      1.34935  1_554   S
    C69    C71       1.38770  1_545   S
    C69    H16       1.08917      .   S
    C69    N107      1.34943  1_554   S
    C71    H18       1.08990      .   S
    C71    C63       1.40330  1_554   S
    C70    H19       1.09015  1_455   S
    C70    C62       1.40329  1_554   S
    C96    C98       1.47943      .   S
    C96    H32       1.08991      .   S
    C97    C99       1.47943      .   S
    C97    H33       1.08992      .   S
    C99    H35       1.04375  1_545   S
    C98    H34       1.04412  1_545   S
    C43    C41       1.41309      .   S
    C43    C45       1.40173      .   S
    C42    C40       1.41309      .   S
    C42    C44       1.40173      .   S
    C40    C50       1.40136      .   S
    C41    C51       1.40136      .   S
    C81    C79       1.41289      .   S
    C81    C82       1.40087      .   S
    C80    C78       1.41289      .   S
    C80    C83       1.40106  1_455   S
    C78    C76       1.40151      .   S
    C79    C77       1.40151      .   S
    H1     C45       1.09114      .   S
    H0     C44       1.09114      .   S
    C44    C46       1.40159      .   S
    C45    C47       1.40158      .   S
    C51    H3        1.09112      .   S
    C51    C49       1.40077      .   S
    C50    H2        1.09112      .   S
    C50    C48       1.40077      .   S
    H22    C82       1.09114      .   S
    H23    C83       1.09111      .   S
    C83    C72       1.40103  1_655   S
    C82    C73       1.40126      .   S
    C77    H21       1.09111      .   S
    C77    C75       1.40182      .   S
    C76    H20       1.09111      .   S
    C76    C74       1.40182      .   S
    C47    C49       1.41290      .   S
    C46    C48       1.41290      .   S
    C72    C74       1.41311      .   S
    C73    C75       1.41311      .   S
    H14    C66       1.09028  1_545   S
    H15    C67       1.08982  1_545   S
    H13    C65       1.08993      .   S
    H12    C64       1.08993      .   S
    H38    C102      1.09016      .   S
    H39    C103      1.08997      .   S
    H37    C101      1.08920      .   S
    H36    C100      1.08919      .   S
    C67    C65       1.38839      .   S
    C67    N107      1.34902  1_565   S
    C66    C64       1.38834      .   S
    C66    N106      1.34895  1_565   S
    C64    C62       1.40429      .   S
    C65    C63       1.40429      .   S
    C103   C101      1.38768  1_545   S
    C102   C100      1.38768  1_545   S
    H24    C84       1.08692      .   S
    H25    C85       1.08692      .   S
    H27    C87       1.08852      .   S
    H26    C86       1.08852      .   S
    C84    C86       1.38771      .   S
    C84    N108      1.34914      .   S
    C85    C87       1.38771      .   S
    C85    N109      1.34914      .   S
    H9     C59       1.08804      .   S
    H8     C58       1.08804      .   S
    C63    C57       1.47453      .   S
    C62    C56       1.47453      .   S
    H10    C61       1.08692      .   S
    H11    C60       1.08722      .   S
    C58    C61       1.38617      .   S
    C58    C57       1.40017      .   S
    C59    C60       1.38617      .   S
    C59    C56       1.40046  1_655   S
