# CIF file generated by openbabel 2.4.90, see http://openbabel.sf.net
data_I
_chemical_name_common ''
_cell_length_a 23.285
_cell_length_b 13.976
_cell_length_c 15.782
_cell_angle_alpha 96.063
_cell_angle_beta 89.996
_cell_angle_gamma 89.977
_space_group_name_H-M_alt 'P 1'
_space_group_name_Hall 'P 1'
loop_
    _symmetry_equiv_pos_as_xyz
    x,y,z
loop_
    _atom_site_label
    _atom_site_type_symbol
    _atom_site_fract_x
    _atom_site_fract_y
    _atom_site_fract_z
    _atom_site_occupancy
    H0      H    0.20287   0.16718   0.14822   1.000
    H1      H    0.70286   0.16718   0.14822   1.000
    H2      H    0.26799   0.16904   0.27361   1.000
    H3      H    0.76798   0.16904   0.27361   1.000
    H4      H    0.18593   0.42744   0.38651   1.000
    H5      H    0.68592   0.42744   0.38651   1.000
    H6      H    0.12494   0.43049   0.25632   1.000
    H7      H    0.62493   0.43049   0.25632   1.000
    H8      H    0.40989   0.42268   0.62747   1.000
    H9      H    0.90988   0.42268   0.62747   1.000
    H10     H    0.47056   0.42359   0.75784   1.000
    H11     H    0.97055   0.42359   0.75784   1.000
    H12     H    0.39049   0.16162   0.81570   1.000
    H13     H    0.89048   0.16161   0.81570   1.000
    H14     H    0.32584   0.16537   0.69028   1.000
    H15     H    0.82583   0.16537   0.69028   1.000
    H16     H    0.41023   0.17476   0.35835   1.000
    H17     H    0.91023   0.17476   0.35835   1.000
    H18     H    0.47079   0.17908   0.22844   1.000
    H19     H    0.97078   0.17908   0.22844   1.000
    H20     H    0.38420   0.43614   0.17123   1.000
    H21     H    0.88420   0.43614   0.17123   1.000
    H22     H    0.32139   0.42905   0.29740   1.000
    H23     H    0.82139   0.42904   0.29740   1.000
    H24     H    0.19109   0.15984   0.60846   1.000
    H25     H    0.69108   0.15984   0.60846   1.000
    H26     H    0.13099   0.15889   0.73943   1.000
    H27     H    0.63098   0.15889   0.73943   1.000
    H28     H    0.20472   0.42944   0.83953   1.000
    H29     H    0.70471   0.42944   0.83953   1.000
    H30     H    0.26760   0.42719   0.71298   1.000
    H31     H    0.76759   0.42719   0.71290   1.000
    H32     H    0.45281   0.83276   0.85176   1.000
    H33     H    0.95280   0.83276   0.85176   1.000
    H34     H    0.01794   0.83089   0.72635   1.000
    H35     H    0.51793   0.83089   0.72635   1.000
    H36     H    0.43596   0.57255   0.61343   1.000
    H37     H    0.93595   0.57255   0.61343   1.000
    H38     H    0.37496   0.56951   0.74363   1.000
    H39     H    0.87495   0.56951   0.74363   1.000
    H40     H    0.15994   0.57731   0.37247   1.000
    H41     H    0.65993   0.57731   0.37247   1.000
    H42     H    0.22061   0.57642   0.24208   1.000
    H43     H    0.72060   0.57642   0.24208   1.000
    H44     H    0.14045   0.83844   0.18430   1.000
    H45     H    0.64044   0.83844   0.18430   1.000
    H46     H    0.07579   0.83467   0.30972   1.000
    H47     H    0.57578   0.83467   0.30972   1.000
    H48     H    0.16018   0.82522   0.64158   1.000
    H49     H    0.66017   0.82522   0.64150   1.000
    H50     H    0.22073   0.82092   0.77148   1.000
    H51     H    0.72072   0.82091   0.77148   1.000
    H52     H    0.13424   0.56391   0.82876   1.000
    H53     H    0.63423   0.56391   0.82876   1.000
    H54     H    0.07144   0.57098   0.70260   1.000
    H55     H    0.57143   0.57097   0.70260   1.000
    H56     H    0.44105   0.84017   0.39146   1.000
    H57     H    0.94105   0.84017   0.39146   1.000
    H58     H    0.38096   0.84111   0.26050   1.000
    H59     H    0.88095   0.84111   0.26050   1.000
    H60     H    0.45475   0.57048   0.16046   1.000
    H61     H    0.95475   0.57048   0.16046   1.000
    H62     H    0.01763   0.57273   0.28700   1.000
    H63     H    0.51762   0.57273   0.28700   1.000
    C64     C    0.41016   0.70085   0.80565   1.000
    C65     C    0.16017   0.29912   0.19431   1.000
    C66     C    0.66017   0.29912   0.19431   1.000
    C67     C    0.20035   0.22523   0.19988   1.000
    C68     C    0.70034   0.22523   0.19988   1.000
    C69     C    0.23632   0.22601   0.27038   1.000
    C70     C    0.73631   0.22601   0.27038   1.000
    C71     C    0.23124   0.29856   0.33874   1.000
    C72     C    0.73123   0.29856   0.33874   1.000
    C73     C    0.19008   0.37116   0.33347   1.000
    C74     C    0.69007   0.37116   0.33347   1.000
    C75     C    0.15573   0.37274   0.26149   1.000
    C76     C    0.65573   0.37274   0.26149   1.000
    C77     C    0.41440   0.70678   0.20169   1.000
    C78     C    0.91439   0.70678   0.20169   1.000
    C79     C    0.45270   0.63080   0.21001   1.000
    C80     C    0.95269   0.63080   0.21001   1.000
    C81     C    0.48769   0.63178   0.28164   1.000
    C82     C    0.36366   0.29430   0.64992   1.000
    C83     C    0.86366   0.29430   0.64992   1.000
    C84     C    0.40527   0.36597   0.66935   1.000
    C85     C    0.90526   0.36597   0.66935   1.000
    C86     C    0.43945   0.36642   0.74164   1.000
    C87     C    0.93944   0.36642   0.74164   1.000
    C88     C    0.43440   0.29253   0.79468   1.000
    C89     C    0.93440   0.29253   0.79468   1.000
    C90     C    0.39366   0.21966   0.77495   1.000
    C91     C    0.89365   0.21966   0.77495   1.000
    C92     C    0.35793   0.22155   0.70442   1.000
    C93     C    0.85792   0.22155   0.70442   1.000
    C94     C    0.36148   0.30138   0.33684   1.000
    C95     C    0.86147   0.30138   0.33684   1.000
    C96     C    0.40416   0.23153   0.31677   1.000
    C97     C    0.90415   0.23153   0.31677   1.000
    C98     C    0.43794   0.23356   0.24434   1.000
    C99     C    0.93793   0.23356   0.24434   1.000
    C100    C    0.43111   0.30717   0.19122   1.000
    C101    C    0.93110   0.30717   0.19122   1.000
    C102    C    0.38917   0.37800   0.21150   1.000
    C103    C    0.88917   0.37800   0.21150   1.000
    C104    C    0.35416   0.37409   0.28264   1.000
    C105    C    0.85415   0.37409   0.28264   1.000
    C106    C    0.23367   0.29324   0.65184   1.000
    C107    C    0.73367   0.29324   0.65184   1.000
    C108    C    0.19458   0.21820   0.65987   1.000
    C109    C    0.69457   0.21820   0.65987   1.000
    C110    C    0.16104   0.21733   0.73270   1.000
    C111    C    0.66103   0.21733   0.73275   1.000
    C112    C    0.16440   0.29318   0.79827   1.000
    C113    C    0.66440   0.29318   0.79827   1.000
    C114    C    0.20269   0.36913   0.78996   1.000
    C115    C    0.70268   0.36913   0.78996   1.000
    C116    C    0.23768   0.36816   0.71833   1.000
    C117    C    0.73767   0.36816   0.71833   1.000
    C118    C    0.91015   0.70085   0.80565   1.000
    C119    C    0.45031   0.77472   0.80008   1.000
    C120    C    0.95030   0.77472   0.80008   1.000
    C121    C    0.48628   0.77393   0.72959   1.000
    C122    C    0.98627   0.77393   0.72959   1.000
    C123    C    0.48122   0.70139   0.66122   1.000
    C124    C    0.98122   0.70139   0.66122   1.000
    C125    C    0.44008   0.62881   0.66648   1.000
    C126    C    0.94007   0.62881   0.66648   1.000
    C127    C    0.40574   0.62724   0.73840   1.000
    C128    C    0.90573   0.62724   0.73846   1.000
    C129    C    0.11366   0.70571   0.35004   1.000
    C130    C    0.61366   0.70571   0.35004   1.000
    C131    C    0.15529   0.63403   0.33059   1.000
    C132    C    0.65529   0.63403   0.33059   1.000
    C133    C    0.18948   0.63360   0.25830   1.000
    C134    C    0.68947   0.63360   0.25830   1.000
    C135    C    0.18440   0.70751   0.20520   1.000
    C136    C    0.68440   0.70751   0.20528   1.000
    C137    C    0.14363   0.78038   0.22503   1.000
    C138    C    0.64363   0.78038   0.22503   1.000
    C139    C    0.10790   0.77848   0.29556   1.000
    C140    C    0.60789   0.77848   0.29556   1.000
    C141    C    0.11147   0.69862   0.66311   1.000
    C142    C    0.61146   0.69862   0.66311   1.000
    C143    C    0.15413   0.76846   0.68310   1.000
    C144    C    0.65412   0.76846   0.68310   1.000
    C145    C    0.18790   0.76645   0.75560   1.000
    C146    C    0.68790   0.76644   0.75560   1.000
    C147    C    0.18110   0.69285   0.80874   1.000
    C148    C    0.68109   0.69285   0.80874   1.000
    C149    C    0.13919   0.62203   0.78848   1.000
    C150    C    0.63919   0.62203   0.78848   1.000
    C151    C    0.10418   0.62593   0.71734   1.000
    C152    C    0.60418   0.62593   0.71734   1.000
    C153    C    0.48367   0.70672   0.34811   1.000
    C154    C    0.98366   0.70672   0.34811   1.000
    C155    C    0.44456   0.78178   0.34007   1.000
    C156    C    0.94455   0.78178   0.34007   1.000
    C157    C    0.41102   0.78265   0.26719   1.000
    C158    C    0.91101   0.78265   0.26719   1.000
    C159    C    0.98768   0.63178   0.28164   1.000
loop_
    _geom_bond_atom_site_label_1
    _geom_bond_atom_site_label_2
    _geom_bond_distance
    _geom_bond_site_symmetry_2
    _ccdc_geom_bond_type
    H0     C67       1.08931      .   S
    H1     C68       1.08931      .   S
    H61    C80       1.08868      .   S
    H60    C79       1.08867      .   S
    H21    C103      1.08925      .   S
    H20    C102      1.08927      .   S
    H44    C137      1.08960      .   S
    H45    C138      1.08962      .   S
    C100   C102      1.40288      .   S
    C100   C98       1.40309      .   S
    C101   C103      1.40288      .   S
    C101   C99       1.40310      .   S
    C66    C68       1.40282      .   S
    C66    C76       1.40104      .   S
    C65    C67       1.40279      .   S
    C65    C75       1.40104      .   S
    C68    C70       1.39175      .   S
    C67    C69       1.39177      .   S
    C77    C79       1.40316      .   S
    C77    C157      1.40268      .   S
    C78    C80       1.40316      .   S
    C78    C158      1.40267      .   S
    C135   C137      1.40301      .   S
    C135   C133      1.40214      .   S
    C136   C138      1.40282      .   S
    C136   C134      1.40130      .   S
    C80    C159      1.39240      .   S
    C79    C81       1.39240      .   S
    C103   C105      1.39323      .   S
    C102   C104      1.39323      .   S
    C137   C139      1.39223      .   S
    C138   C140      1.39223      .   S
    H18    C98       1.08938      .   S
    H19    C99       1.08939      .   S
    H42    C133      1.08898      .   S
    H43    C134      1.08897      .   S
    C99    C97       1.39025      .   S
    C98    C96       1.39023      .   S
    H7     C76       1.08889      .   S
    H6     C75       1.08889      .   S
    C133   C131      1.39058      .   S
    C134   C132      1.39058      .   S
    H59    C158      1.08930      .   S
    H58    C157      1.08931      .   S
    C75    C73       1.39131      .   S
    C76    C74       1.39130      .   S
    C157   C155      1.39134      .   S
    C158   C156      1.39134      .   S
    C69    H2        1.09024      .   S
    C69    C71       1.40530      .   S
    C70    H3        1.09024      .   S
    C70    C72       1.40530      .   S
    C81    H63       1.09012      .   S
    C81    C153      1.40503      .   S
    C159   H62       1.09036  1_655   S
    C159   C154      1.40501      .   S
    C105   H23       1.08994      .   S
    C105   C95       1.40604      .   S
    C104   H22       1.08994      .   S
    C104   C94       1.40604      .   S
    C139   H46       1.09002      .   S
    C139   C129      1.40580      .   S
    C140   H47       1.09003      .   S
    C140   C130      1.40579      .   S
    C96    C94       1.40531      .   S
    C96    H16       1.09097      .   S
    C97    C95       1.40533      .   S
    C97    H17       1.09096      .   S
    C131   C129      1.40414      .   S
    C131   H40       1.08975      .   S
    C132   C130      1.40413      .   S
    C132   H41       1.08976      .   S
    C74    C72       1.40436      .   S
    C74    H5        1.09061      .   S
    C73    C71       1.40436      .   S
    C73    H4        1.09061      .   S
    C155   C153      1.40477      .   S
    C155   H56       1.09107      .   S
    C156   C154      1.40478      .   S
    C156   H57       1.09106      .   S
    H24    C108      1.09110      .   S
    H25    C109      1.09110      .   S
    H36    C125      1.09065      .   S
    H37    C126      1.09063      .   S
    H9     C85       1.08965      .   S
    H8     C84       1.08965      .   S
    H49    C144      1.09105      .   S
    H48    C143      1.09019      .   S
    C82    C84       1.40415      .   S
    C82    C92       1.40579      .   S
    C83    C85       1.40413      .   S
    C83    C93       1.40579      .   S
    C106   C108      1.40478      .   S
    C106   C116      1.40507      .   S
    C107   C109      1.40478      .   S
    C107   C117      1.40507      .   S
    C108   C110      1.39065      .   S
    C109   C111      1.39131      .   S
    C124   C126      1.40436      .   S
    C124   C122      1.40533      .   S
    C123   C125      1.40434      .   S
    C123   C121      1.40532      .   S
    C142   C144      1.40518      .   S
    C142   C152      1.40615      .   S
    C141   C143      1.40518      .   S
    C141   C151      1.40616      .   S
    C126   C128      1.39127      .   S
    C125   C127      1.39048      .   S
    C85    C87       1.39064      .   S
    C84    C86       1.39063      .   S
    C143   C145      1.39118      .   S
    C144   C146      1.39118      .   S
    H14    C92       1.09004      .   S
    H15    C93       1.09002      .   S
    H54    C151      1.08993      .   S
    H55    C152      1.08996      .   S
    C92    C90       1.39225      .   S
    C93    C91       1.39227      .   S
    H31    C117      1.09031      .   S
    H30    C116      1.09010      .   S
    C151   C149      1.39323      .   S
    C152   C150      1.39323      .   S
    C116   C114      1.39232      .   S
    C117   C115      1.39232      .   S
    H35    C121      1.09026      .   S
    H34    C122      1.09053  1_455   S
    C121   C119      1.39155      .   S
    C122   C120      1.39157      .   S
    C110   H26       1.08943      .   S
    C110   C112      1.40320      .   S
    C111   H27       1.08930      .   S
    C111   C113      1.40269      .   S
    C127   H38       1.08906      .   S
    C127   C64       1.40168      .   S
    C128   H39       1.08890      .   S
    C128   C118      1.40105      .   S
    C87    H11       1.08898      .   S
    C87    C89       1.40131      .   S
    C86    H10       1.08899      .   S
    C86    C88       1.40131      .   S
    C146   H51       1.08939      .   S
    C146   C148      1.40310      .   S
    C145   H50       1.08938      .   S
    C145   C147      1.40310      .   S
    C91    C89       1.40285      .   S
    C91    H13       1.08969      .   S
    C90    C88       1.40285      .   S
    C90    H12       1.08968      .   S
    C149   C147      1.40289      .   S
    C149   H52       1.08921      .   S
    C150   C148      1.40287      .   S
    C150   H53       1.08920      .   S
    C115   C113      1.40316      .   S
    C115   H29       1.08871      .   S
    C114   C112      1.40316      .   S
    C114   H28       1.08871      .   S
    C119   C64       1.40282      .   S
    C119   H32       1.08943      .   S
    C120   C118      1.40282      .   S
    C120   H33       1.08942      .   S
