# CIF file generated by openbabel 2.4.90, see http://openbabel.sf.net
data_I
_chemical_name_common ''
_cell_length_a 23.285
_cell_length_b 13.976
_cell_length_c 15.782
_cell_angle_alpha 96.063
_cell_angle_beta 89.996
_cell_angle_gamma 89.977
_space_group_name_H-M_alt 'P 1'
_space_group_name_Hall 'P 1'
loop_
    _symmetry_equiv_pos_as_xyz
    x,y,z
loop_
    _atom_site_label
    _atom_site_type_symbol
    _atom_site_fract_x
    _atom_site_fract_y
    _atom_site_fract_z
    _atom_site_occupancy
    Zn0     Zn   0.54742   0.19675   0.98514   1.000
    Zn1     Zn   0.04785   0.40011   0.00340   1.000
    Zn2     Zn   0.54784   0.40011   0.00340   1.000
    Zn3     Zn   0.29739   0.80324   0.01482   1.000
    Zn4     Zn   0.79738   0.80324   0.01482   1.000
    Zn5     Zn   0.29786   0.59988   0.99656   1.000
    Zn6     Zn   0.79785   0.59988   0.99656   1.000
    Zn7     Zn   0.04742   0.19675   0.98514   1.000
    C8      C    0.97276   0.29186   0.87070   1.000
    C9      C    0.37184   0.70058   0.88179   1.000
    C10     C    0.87183   0.70058   0.88179   1.000
    C11     C    0.12186   0.29939   0.11810   1.000
    C12     C    0.62185   0.29939   0.11810   1.000
    C13     C    0.12607   0.29295   0.87445   1.000
    C14     C    0.62606   0.29295   0.87445   1.000
    C15     C    0.46925   0.30846   0.11492   1.000
    C16     C    0.96924   0.30846   0.11492   1.000
    C17     C    0.47277   0.29187   0.87070   1.000
    C18     C    0.37606   0.70702   0.12550   1.000
    C19     C    0.87605   0.70702   0.12552   1.000
    C20     C    0.21923   0.69156   0.88504   1.000
    C21     C    0.71922   0.69156   0.88504   1.000
    C22     C    0.22276   0.70816   0.12926   1.000
    C23     C    0.72276   0.70816   0.12926   1.000
    O24     O    0.09718   0.37874   0.10734   1.000
    O25     O    0.59717   0.37874   0.10734   1.000
    O26     O    0.11696   0.22091   0.06957   1.000
    O27     O    0.61695   0.22091   0.06957   1.000
    O28     O    0.11972   0.37142   0.92230   1.000
    O29     O    0.61971   0.37142   0.92230   1.000
    O30     O    0.10220   0.21265   0.88554   1.000
    O31     O    0.60219   0.21265   0.88554   1.000
    O32     O    0.49330   0.22844   0.08874   1.000
    O33     O    0.99329   0.22844   0.08874   1.000
    O34     O    0.47520   0.38699   0.08173   1.000
    O35     O    0.97519   0.38699   0.08173   1.000
    O36     O    0.49765   0.37099   0.89630   1.000
    O37     O    0.99765   0.37099   0.89630   1.000
    O38     O    0.47781   0.21325   0.90441   1.000
    O39     O    0.97780   0.21325   0.90441   1.000
    O40     O    0.34719   0.62124   0.89262   1.000
    O41     O    0.84718   0.62124   0.89262   1.000
    O42     O    0.36692   0.77906   0.93040   1.000
    O43     O    0.86691   0.77906   0.93040   1.000
    O44     O    0.36971   0.62855   0.07760   1.000
    O45     O    0.86971   0.62855   0.07760   1.000
    O46     O    0.35218   0.78735   0.11442   1.000
    O47     O    0.85217   0.78735   0.11442   1.000
    O48     O    0.24325   0.77157   0.91123   1.000
    O49     O    0.74324   0.77157   0.91123   1.000
    O50     O    0.22522   0.61302   0.91823   1.000
    O51     O    0.72521   0.61302   0.91823   1.000
    O52     O    0.24766   0.62901   0.10350   1.000
    O53     O    0.74766   0.62901   0.10356   1.000
    O54     O    0.22780   0.78678   0.09556   1.000
    O55     O    0.72779   0.78678   0.09556   1.000
    Ts56    Ts   0.54692   0.14761   0.98493   1.000
    Ts57    Ts   0.04815   0.44905   0.00427   1.000
    Ts58    Ts   0.54814   0.44905   0.00427   1.000
    Ts59    Ts   0.29690   0.85239   0.01503   1.000
    Ts60    Ts   0.79689   0.85239   0.01503   1.000
    Ts61    Ts   0.29817   0.55094   0.99569   1.000
    Ts62    Ts   0.79816   0.55094   0.99569   1.000
    Ts63    Ts   0.04693   0.14761   0.98493   1.000
    Og64    Og   0.95997   0.29209   0.84536   1.000
    Og65    Og   0.38461   0.70067   0.85641   1.000
    Og66    Og   0.88460   0.70067   0.85641   1.000
    Og67    Og   0.13463   0.29930   0.14350   1.000
    Og68    Og   0.63462   0.29930   0.14350   1.000
    Og69    Og   0.13885   0.29302   0.84906   1.000
    Og70    Og   0.63884   0.29302   0.84906   1.000
    Og71    Og   0.45653   0.30803   0.14035   1.000
    Og72    Og   0.95652   0.30803   0.14035   1.000
    Og73    Og   0.45998   0.29209   0.84536   1.000
    Og74    Og   0.38884   0.70694   0.15090   1.000
    Og75    Og   0.88883   0.70694   0.15091   1.000
    Og76    Og   0.20652   0.69199   0.85961   1.000
    Og77    Og   0.70651   0.69199   0.85961   1.000
    Og78    Og   0.20998   0.70794   0.15457   1.000
    Og79    Og   0.70997   0.70794   0.15460   1.000
loop_
    _geom_bond_atom_site_label_1
    _geom_bond_atom_site_label_2
    _geom_bond_distance
    _geom_bond_site_symmetry_2
    _ccdc_geom_bond_type
    Zn1    O35       2.11463  1_455   S
    Zn1    O24       2.05015      .   S
    Zn1    O37       2.06018  1_454   S
    Zn1    O28       2.11900  1_554   S
    Zn2    O34       2.11434      .   S
    Zn2    O25       2.05016      .   S
    Zn2    O36       2.05997  1_554   S
    Zn2    O29       2.11900  1_554   S
    Zn3    O54       2.08918      .   S
    Zn3    O46       2.05464      .   S
    Zn3    O48       2.07512  1_554   S
    Zn3    O42       2.10098  1_554   S
    Zn4    O55       2.08920      .   S
    Zn4    O47       2.05466      .   S
    Zn4    O49       2.07512  1_554   S
    Zn4    O43       2.10095  1_554   S
    O26    C11       1.27492      .   S
    O26    Zn7       2.10156  1_554   S
    O27    C12       1.27492      .   S
    O27    Zn0       2.10156  1_554   S
    O44    C18       1.27322      .   S
    O44    Zn5       2.11860  1_554   S
    O45    C19       1.27337      .   S
    O45    Zn6       2.11860  1_554   S
    O34    C15       1.27266      .   S
    O35    C16       1.27267      .   S
    O32    C15       1.27941      .   S
    O32    Zn0       2.07456  1_554   S
    O33    C16       1.27944      .   S
    O33    Zn7       2.07477  1_654   S
    O54    C22       1.27571      .   S
    O55    C23       1.27571      .   S
    O52    C22       1.27656      .   S
    O52    Zn5       2.05774  1_554   S
    O53    C23       1.27632      .   S
    O53    Zn6       2.05853  1_554   S
    O24    C11       1.27599      .   S
    O25    C12       1.27597      .   S
    O46    C18       1.28099      .   S
    O47    C19       1.28105      .   S
    C17    O36       1.27601      .   S
    C17    O38       1.27572      .   S
    C8     O37       1.27601      .   S
    C8     O39       1.27570      .   S
    C14    O31       1.28102      .   S
    C14    O29       1.27274      .   S
    C13    O30       1.28102      .   S
    C13    O28       1.27274      .   S
    C9     O40       1.27620      .   S
    C9     O42       1.27553      .   S
    C10    O41       1.27621      .   S
    C10    O43       1.27554      .   S
    C21    O49       1.27944      .   S
    C21    O51       1.27271      .   S
    C20    O48       1.27943      .   S
    C20    O50       1.27269      .   S
    O30    Zn7       2.05444      .   S
    O31    Zn0       2.05444      .   S
    O40    Zn5       2.05007      .   S
    O41    Zn6       2.05005      .   S
    O39    Zn7       2.08967  1_655   S
    O38    Zn0       2.08936      .   S
    O51    Zn6       2.11449      .   S
    O50    Zn5       2.11448      .   S
    Zn7    Zn1       2.82628  1_556   S
    Zn0    Zn2       2.82628  1_556   S
    Zn3    Zn5       2.82629  1_554   S
    Zn4    Zn6       2.82629  1_554   S
    Zn0    Ts56      0.68663      .   S
    Zn1    Ts57      0.68269      .   S
    Zn2    Ts58      0.68269      .   S
    Zn3    Ts59      0.68662      .   S
    Zn4    Ts60      0.68662      .   S
    Zn5    Ts61      0.68269      .   S
    Zn6    Ts62      0.68269      .   S
    Zn7    Ts63      0.68663      .   S
    C8     Og64      0.49888      .   S
    C9     Og65      0.49898      .   S
    C10    Og66      0.49897      .   S
    C11    Og67      0.49930      .   S
    C12    Og68      0.49931      .   S
    C13    Og69      0.49923      .   S
    C14    Og70      0.49923      .   S
    C15    Og71      0.49927      .   S
    C16    Og72      0.49927      .   S
    C17    Og73      0.49887      .   S
    C18    Og74      0.49932      .   S
    C19    Og75      0.49924      .   S
    C20    Og76      0.49928      .   S
    C21    Og77      0.49927      .   S
    C22    Og78      0.49849      .   S
    C23    Og79      0.49883      .   S
