# CIF file generated by openbabel 2.4.90, see http://openbabel.sf.net
data_I
_chemical_name_common ''
_cell_length_a 23.285
_cell_length_b 13.976
_cell_length_c 15.782
_cell_angle_alpha 96.063
_cell_angle_beta 89.996
_cell_angle_gamma 89.977
_space_group_name_H-M_alt 'P 1'
_space_group_name_Hall 'P 1'
loop_
    _symmetry_equiv_pos_as_xyz
    x,y,z
loop_
    _atom_site_label
    _atom_site_type_symbol
    _atom_site_fract_x
    _atom_site_fract_y
    _atom_site_fract_z
    _atom_site_occupancy
    N0      N    0.04752   0.70335   0.50570   1.000
    N1      N    0.79752   0.29662   0.49425   1.000
    N2      N    0.54736   0.79833   0.99535   1.000
    N3      N    0.54752   0.70335   0.50570   1.000
    N4      N    0.04736   0.79833   0.99535   1.000
    N5      N    0.29753   0.29662   0.49425   1.000
    N6      N    0.79736   0.20133   0.00294   1.000
    N7      N    0.29736   0.20133   0.00294   1.000
    Zr8     Zr   0.79750   0.70193   0.00547   1.000
    O9      O    0.73540   0.69790   0.89848   1.000
    O10     O    0.85788   0.70146   0.89708   1.000
    O11     O    0.73692   0.70459   0.11389   1.000
    O12     O    0.85976   0.70432   0.11234   1.000
    O13     O    0.79725   0.87054   0.00726   1.000
    O14     O    0.79767   0.53292   0.00228   1.000
    Zr15    Zr   0.54751   0.29807   0.99447   1.000
    O16     O    0.48693   0.29542   0.88607   1.000
    O17     O    0.48542   0.30211   0.10147   1.000
    O18     O    0.60790   0.29852   0.10286   1.000
    O19     O    0.54767   0.46700   0.99725   1.000
    O20     O    0.54726   0.12937   0.99228   1.000
    O21     O    0.60977   0.29566   0.88761   1.000
    Zr22    Zr   0.04751   0.29807   0.99447   1.000
    O23     O    0.10790   0.29852   0.10286   1.000
    O24     O    0.98541   0.30211   0.10147   1.000
    O25     O    0.98693   0.29542   0.88607   1.000
    O26     O    0.04767   0.46700   0.99725   1.000
    O27     O    0.10978   0.29566   0.88761   1.000
    O28     O    0.04727   0.12937   0.99228   1.000
    Zr29    Zr   0.29750   0.70193   0.00547   1.000
    O30     O    0.29726   0.87054   0.00725   1.000
    O31     O    0.35789   0.70146   0.89708   1.000
    O32     O    0.23541   0.69790   0.89848   1.000
    O33     O    0.23693   0.70459   0.11387   1.000
    O34     O    0.29767   0.53292   0.00228   1.000
    O35     O    0.35977   0.70432   0.11234   1.000
loop_
    _geom_bond_atom_site_label_1
    _geom_bond_atom_site_label_2
    _geom_bond_distance
    _geom_bond_site_symmetry_2
    _ccdc_geom_bond_type
    Zr8    O9        2.21936  1_554   S
    N3     O9        7.59430      .   S
    Zr8    O10       2.21368  1_554   S
    N0     O10       7.59507  1_455   S
    Zr8    O11       2.21468      .   S
    N3     O11       7.59639      .   S
    Zr8    O12       2.22179      .   S
    N0     O12       7.59435  1_455   S
    Zr8    O13       2.35367      .   S
    N6     O13       4.63089  1_545   S
    Zr8    O14       2.35735      .   S
    N6     O14       4.63531      .   S
    Zr15   O16       2.21482      .   S
    N5     O16       7.59696      .   S
    Zr15   O17       2.21919  1_556   S
    N5     O17       7.59388      .   S
    Zr15   O18       2.21385  1_556   S
    N1     O18       7.59529      .   S
    Zr15   O19       2.35674      .   S
    N2     O19       4.63402      .   S
    Zr15   O20       2.35424      .   S
    N2     O20       4.63202  1_565   S
    Zr15   O21       2.22146      .   S
    N1     O21       7.59385      .   S
    Zr22   O23       2.21390  1_556   S
    N5     O23       7.59533      .   S
    Zr22   O24       2.21926  1_456   S
    N1     O24       7.59394      .   S
    Zr22   O25       2.21489  1_455   S
    N1     O25       7.59702      .   S
    Zr22   O26       2.35674      .   S
    N4     O26       4.63402      .   S
    Zr22   O27       2.22151      .   S
    N5     O27       7.59391      .   S
    Zr22   O28       2.35423      .   S
    N4     O28       4.63202  1_565   S
    Zr29   O30       2.35367      .   S
    N7     O30       4.63089  1_545   S
    Zr29   O31       2.21367  1_554   S
    N3     O31       7.59480      .   S
    Zr29   O32       2.21930  1_554   S
    N0     O32       7.59439      .   S
    Zr29   O33       2.21457      .   S
    N0     O33       7.59659      .   S
    Zr29   O34       2.35735      .   S
    N7     O34       4.63531      .   S
    Zr29   O35       2.22179      .   S
    N3     O35       7.59432      .   S
