# CIF file generated by openbabel 2.4.90, see http://openbabel.sf.net
data_I
_chemical_name_common ''
_cell_length_a 23.285
_cell_length_b 13.976
_cell_length_c 15.782
_cell_angle_alpha 96.063
_cell_angle_beta 89.996
_cell_angle_gamma 89.977
_space_group_name_H-M_alt 'P 1'
_space_group_name_Hall 'P 1'
loop_
    _symmetry_equiv_pos_as_xyz
    x,y,z
loop_
    _atom_site_label
    _atom_site_type_symbol
    _atom_site_fract_x
    _atom_site_fract_y
    _atom_site_fract_z
    _atom_site_occupancy
    Zr0     Zr   0.04742   0.19675   0.98514   1.000
    Zr1     Zr   0.54742   0.19675   0.98514   1.000
    Zr2     Zr   0.04785   0.40011   0.00340   1.000
    Zr3     Zr   0.54784   0.40011   0.00340   1.000
    Zr4     Zr   0.29739   0.80324   0.01482   1.000
    Zr5     Zr   0.79738   0.80324   0.01482   1.000
    Zr6     Zr   0.29786   0.59988   0.99656   1.000
    Zr7     Zr   0.79785   0.59988   0.99656   1.000
    Zr8     Zr   0.12186   0.29939   0.11810   1.000
    Zr9     Zr   0.62185   0.29939   0.11810   1.000
    Zr10    Zr   0.12607   0.29295   0.87445   1.000
    Zr11    Zr   0.62606   0.29295   0.87445   1.000
    Zr12    Zr   0.46925   0.30846   0.11492   1.000
    Zr13    Zr   0.96924   0.30846   0.11492   1.000
    Zr14    Zr   0.47277   0.29187   0.87070   1.000
    Zr15    Zr   0.97276   0.29186   0.87070   1.000
    Zr16    Zr   0.37184   0.70058   0.88179   1.000
    Zr17    Zr   0.87183   0.70058   0.88179   1.000
    Zr18    Zr   0.37606   0.70702   0.12550   1.000
    Zr19    Zr   0.87605   0.70702   0.12552   1.000
    Zr20    Zr   0.21923   0.69156   0.88504   1.000
    Zr21    Zr   0.71922   0.69156   0.88504   1.000
    Zr22    Zr   0.22276   0.70816   0.12926   1.000
    Zr23    Zr   0.72276   0.70816   0.12926   1.000
    Zr24    Zr   0.09718   0.37874   0.10734   1.000
    Zr25    Zr   0.59717   0.37874   0.10734   1.000
    Zr26    Zr   0.11696   0.22091   0.06957   1.000
    Zr27    Zr   0.61695   0.22091   0.06957   1.000
    Zr28    Zr   0.11972   0.37142   0.92230   1.000
    Zr29    Zr   0.61971   0.37142   0.92230   1.000
    Zr30    Zr   0.10220   0.21265   0.88554   1.000
    Zr31    Zr   0.60219   0.21265   0.88554   1.000
    Zr32    Zr   0.49330   0.22844   0.08874   1.000
    Zr33    Zr   0.99329   0.22844   0.08874   1.000
    Zr34    Zr   0.47520   0.38699   0.08173   1.000
    Zr35    Zr   0.97519   0.38699   0.08173   1.000
    Zr36    Zr   0.49765   0.37099   0.89630   1.000
    Zr37    Zr   0.99765   0.37099   0.89630   1.000
    Zr38    Zr   0.47781   0.21325   0.90441   1.000
    Zr39    Zr   0.97780   0.21325   0.90441   1.000
    Zr40    Zr   0.34719   0.62124   0.89262   1.000
    Zr41    Zr   0.84718   0.62124   0.89262   1.000
    Zr42    Zr   0.36692   0.77906   0.93040   1.000
    Zr43    Zr   0.86691   0.77906   0.93040   1.000
    Zr44    Zr   0.36971   0.62855   0.07760   1.000
    Zr45    Zr   0.86971   0.62855   0.07760   1.000
    Zr46    Zr   0.35218   0.78735   0.11442   1.000
    Zr47    Zr   0.85217   0.78735   0.11442   1.000
    Zr48    Zr   0.24325   0.77157   0.91123   1.000
    Zr49    Zr   0.74324   0.77157   0.91123   1.000
    Zr50    Zr   0.22522   0.61302   0.91823   1.000
    Zr51    Zr   0.72521   0.61302   0.91823   1.000
    Zr52    Zr   0.24766   0.62901   0.10350   1.000
    Zr53    Zr   0.74766   0.62901   0.10356   1.000
    Zr54    Zr   0.22780   0.78678   0.09556   1.000
    Zr55    Zr   0.72779   0.78678   0.09556   1.000
    O56     O    0.01152   0.39355   0.04257   1.000
    O57     O    0.07251   0.38943   0.05537   1.000
    O58     O    0.02275   0.38555   0.94985   1.000
    O59     O    0.08378   0.38577   0.96285   1.000
    O60     O    0.51152   0.39355   0.04257   1.000
    O61     O    0.57251   0.38943   0.05537   1.000
    O62     O    0.52275   0.38555   0.94985   1.000
    O63     O    0.58377   0.38577   0.96285   1.000
    O64     O    0.26259   0.79501   0.05519   1.000
    O65     O    0.32479   0.79529   0.06462   1.000
    O66     O    0.27032   0.78741   0.96303   1.000
    O67     O    0.33215   0.79115   0.97261   1.000
    O68     O    0.76259   0.79501   0.05519   1.000
    O69     O    0.82478   0.79529   0.06462   1.000
    O70     O    0.77031   0.78741   0.96303   1.000
    O71     O    0.83215   0.79115   0.97261   1.000
    O72     O    0.11941   0.26015   0.09384   1.000
    O73     O    0.08219   0.20883   0.02736   1.000
    O74     O    0.61940   0.26015   0.09384   1.000
    O75     O    0.58218   0.20883   0.02736   1.000
    O76     O    0.37289   0.66779   0.10155   1.000
    O77     O    0.33379   0.61422   0.03708   1.000
    O78     O    0.87288   0.66779   0.10156   1.000
    O79     O    0.83378   0.61422   0.03708   1.000
    O80     O    0.47222   0.34773   0.09833   1.000
    O81     O    0.97222   0.34773   0.09833   1.000
    O82     O    0.48127   0.26845   0.10183   1.000
    O83     O    0.52036   0.21260   0.03694   1.000
    O84     O    0.98126   0.26845   0.10183   1.000
    O85     O    0.02036   0.21260   0.03694   1.000
    O86     O    0.22528   0.74747   0.11241   1.000
    O87     O    0.72527   0.74747   0.11241   1.000
    O88     O    0.23521   0.66858   0.11638   1.000
    O89     O    0.27276   0.61444   0.05003   1.000
    O90     O    0.73521   0.66858   0.11641   1.000
    O91     O    0.77275   0.61444   0.05006   1.000
    O92     O    0.10952   0.33907   0.11272   1.000
    O93     O    0.60951   0.33907   0.11272   1.000
    O94     O    0.36412   0.74718   0.11996   1.000
    O95     O    0.86411   0.74718   0.11997   1.000
    O96     O    0.48521   0.33143   0.88350   1.000
    O97     O    0.47529   0.25256   0.88756   1.000
    O98     O    0.98520   0.33143   0.88350   1.000
    O99     O    0.97528   0.25256   0.88756   1.000
    O100    O    0.61413   0.25280   0.88000   1.000
    O101    O    0.62288   0.33218   0.89838   1.000
    O102    O    0.11413   0.25280   0.88000   1.000
    O103    O    0.12289   0.33218   0.89838   1.000
    O104    O    0.35951   0.66091   0.88721   1.000
    O105    O    0.36938   0.73982   0.90610   1.000
    O106    O    0.85950   0.66091   0.88721   1.000
    O107    O    0.86937   0.73982   0.90610   1.000
    O108    O    0.73123   0.73156   0.89814   1.000
    O109    O    0.72222   0.65229   0.90164   1.000
    O110    O    0.23124   0.73156   0.89814   1.000
    O111    O    0.22222   0.65229   0.90164   1.000
    O112    O    0.07481   0.20470   0.93534   1.000
    O113    O    0.57480   0.20470   0.93534   1.000
    O114    O    0.32252   0.61056   0.94459   1.000
    O115    O    0.82251   0.61056   0.94459   1.000
    O116    O    0.01261   0.20500   0.94478   1.000
    O117    O    0.51261   0.20500   0.94478   1.000
    O118    O    0.76153   0.60645   0.95740   1.000
    O119    O    0.26154   0.60645   0.95740   1.000
    O120    O    0.04764   0.29843   0.99427   1.000
    O121    O    0.54763   0.29843   0.99427   1.000
    O122    O    0.29762   0.70156   0.00569   1.000
    O123    O    0.79762   0.70156   0.00569   1.000
    N124    N    0.04752   0.70335   0.50570   1.000
    O125    O    0.17635   0.70724   0.22228   1.000
    O126    O    0.92203   0.70670   0.21921   1.000
    O127    O    0.91826   0.70099   0.78869   1.000
    O128    O    0.17331   0.69387   0.79148   1.000
    N129    N    0.79752   0.29662   0.49425   1.000
    O130    O    0.92331   0.30615   0.20847   1.000
    O131    O    0.66828   0.29898   0.21125   1.000
    O132    O    0.92634   0.29278   0.77766   1.000
    O133    O    0.67203   0.29326   0.78075   1.000
    N134    N    0.54736   0.79833   0.99535   1.000
    O135    O    0.54783   0.63593   0.00003   1.000
    O136    O    0.54702   0.96068   0.99009   1.000
    N137    N    0.54752   0.70335   0.50570   1.000
    O138    O    0.67634   0.70724   0.22230   1.000
    O139    O    0.42204   0.70670   0.21920   1.000
    O140    O    0.41827   0.70099   0.78869   1.000
    O141    O    0.67330   0.69387   0.79148   1.000
    N142    N    0.04736   0.79833   0.99535   1.000
    O143    O    0.04783   0.63593   0.00003   1.000
    O144    O    0.04702   0.96068   0.99009   1.000
    N145    N    0.29753   0.29662   0.49425   1.000
    O146    O    0.42332   0.30615   0.20847   1.000
    O147    O    0.16829   0.29898   0.21125   1.000
    O148    O    0.42635   0.29278   0.77766   1.000
    O149    O    0.17204   0.29326   0.78075   1.000
    N150    N    0.79736   0.20133   0.00294   1.000
    O151    O    0.79700   0.03915   0.00904   1.000
    O152    O    0.79784   0.36390   0.99909   1.000
    N153    N    0.29736   0.20133   0.00294   1.000
    O154    O    0.29784   0.36390   0.99909   1.000
    O155    O    0.29701   0.03915   0.00904   1.000
loop_
    _geom_bond_atom_site_label_1
    _geom_bond_atom_site_label_2
    _geom_bond_distance
    _geom_bond_site_symmetry_2
    _ccdc_geom_bond_type
    Zr2    O56       1.05732      .   S
    Zr35   O56       1.05732  1_655   S
    Zr2    O57       1.02507      .   S
    Zr24   O57       1.02507      .   S
    Zr2    O58       1.03009  1_554   S
    Zr37   O58       1.03009  1_655   S
    Zr2    O59       1.05950  1_554   S
    Zr28   O59       1.05950      .   S
    Zr3    O60       1.05717      .   S
    Zr34   O60       1.05717      .   S
    Zr3    O61       1.02508      .   S
    Zr25   O61       1.02508      .   S
    Zr3    O62       1.02998  1_554   S
    Zr36   O62       1.02998      .   S
    Zr3    O63       1.05950  1_554   S
    Zr29   O63       1.05950      .   S
    Zr4    O64       1.04459      .   S
    Zr54   O64       1.04459      .   S
    Zr4    O65       1.02732      .   S
    Zr46   O65       1.02732      .   S
    Zr4    O66       1.03756  1_554   S
    Zr48   O66       1.03756      .   S
    Zr4    O67       1.05049  1_554   S
    Zr42   O67       1.05049      .   S
    Zr5    O68       1.04460      .   S
    Zr55   O68       1.04460      .   S
    Zr5    O69       1.02733      .   S
    Zr47   O69       1.02733      .   S
    Zr5    O70       1.03756  1_554   S
    Zr49   O70       1.03756      .   S
    Zr5    O71       1.05047  1_554   S
    Zr43   O71       1.05047      .   S
    Zr26   O72       0.63746      .   S
    Zr8    O72       0.63746      .   S
    Zr26   O73       1.05078      .   S
    Zr0    O73       1.05078  1_556   S
    Zr27   O74       0.63746      .   S
    Zr9    O74       0.63746      .   S
    Zr27   O75       1.05078      .   S
    Zr1    O75       1.05078  1_556   S
    Zr44   O76       0.63661      .   S
    Zr18   O76       0.63661      .   S
    Zr44   O77       1.05930      .   S
    Zr6    O77       1.05930  1_556   S
    Zr45   O78       0.63668      .   S
    Zr19   O78       0.63668      .   S
    Zr45   O79       1.05930      .   S
    Zr7    O79       1.05930  1_556   S
    Zr34   O80       0.63633      .   S
    Zr12   O80       0.63633      .   S
    Zr35   O81       0.63633      .   S
    Zr13   O81       0.63633      .   S
    Zr32   O82       0.63971      .   S
    Zr12   O82       0.63971      .   S
    Zr32   O83       1.03728      .   S
    Zr1    O83       1.03728  1_556   S
    Zr33   O84       0.63972      .   S
    Zr13   O84       0.63972      .   S
    Zr33   O85       1.03738  1_655   S
    Zr0    O85       1.03738  1_556   S
    Zr54   O86       0.63785      .   S
    Zr22   O86       0.63785      .   S
    Zr55   O87       0.63785      .   S
    Zr23   O87       0.63785      .   S
    Zr52   O88       0.63828      .   S
    Zr22   O88       0.63828      .   S
    Zr52   O89       1.02887      .   S
    Zr6    O89       1.02887  1_556   S
    Zr53   O90       0.63816      .   S
    Zr23   O90       0.63816      .   S
    Zr53   O91       1.02926      .   S
    Zr7    O91       1.02926  1_556   S
    Zr24   O92       0.63800      .   S
    Zr8    O92       0.63800      .   S
    Zr25   O93       0.63799      .   S
    Zr9    O93       0.63799      .   S
    Zr46   O94       0.64049      .   S
    Zr18   O94       0.64049      .   S
    Zr47   O95       0.64053      .   S
    Zr19   O95       0.64053      .   S
    Zr14   O96       0.63800      .   S
    Zr36   O96       0.63800      .   S
    Zr14   O97       0.63786      .   S
    Zr38   O97       0.63786      .   S
    Zr15   O98       0.63801      .   S
    Zr37   O98       0.63801      .   S
    Zr15   O99       0.63785      .   S
    Zr39   O99       0.63785      .   S
    Zr11   O100      0.64051      .   S
    Zr31   O100      0.64051      .   S
    Zr11   O101      0.63637      .   S
    Zr29   O101      0.63637      .   S
    Zr10   O102      0.64051      .   S
    Zr30   O102      0.64051      .   S
    Zr10   O103      0.63637      .   S
    Zr28   O103      0.63637      .   S
    Zr16   O104      0.63810      .   S
    Zr40   O104      0.63810      .   S
    Zr16   O105      0.63776      .   S
    Zr42   O105      0.63776      .   S
    Zr17   O106      0.63810      .   S
    Zr41   O106      0.63810      .   S
    Zr17   O107      0.63777      .   S
    Zr43   O107      0.63777      .   S
    Zr21   O108      0.63972      .   S
    Zr49   O108      0.63972      .   S
    Zr21   O109      0.63635      .   S
    Zr51   O109      0.63635      .   S
    Zr20   O110      0.63972      .   S
    Zr48   O110      0.63972      .   S
    Zr20   O111      0.63635      .   S
    Zr50   O111      0.63635      .   S
    Zr30   O112      1.02722      .   S
    Zr0    O112      1.02722      .   S
    Zr31   O113      1.02722      .   S
    Zr1    O113      1.02722      .   S
    Zr40   O114      1.02504      .   S
    Zr6    O114      1.02504      .   S
    Zr41   O115      1.02502      .   S
    Zr7    O115      1.02502      .   S
    Zr39   O116      1.04484  1_655   S
    Zr0    O116      1.04484      .   S
    Zr38   O117      1.04468      .   S
    Zr1    O117      1.04468      .   S
    Zr51   O118      1.05725      .   S
    Zr7    O118      1.05725      .   S
    Zr50   O119      1.05724      .   S
    Zr6    O119      1.05724      .   S
    Zr0    O120      1.41314      .   S
    Zr2    O120      1.41314  1_554   S
    Zr1    O121      1.41314      .   S
    Zr3    O121      1.41314  1_554   S
    Zr4    O122      1.41314      .   S
    Zr6    O122      1.41314  1_556   S
    Zr5    O123      1.41314      .   S
    Zr7    O123      1.41314  1_556   S
    N124   O125      5.39049      .   S
    Zr22   O125      1.82402      .   S
    N124   O126      5.38793  1_455   S
    Zr19   O126      1.82593      .   S
    N124   O127      5.38861  1_455   S
    Zr17   O127      1.82463      .   S
    N124   O128      5.39142      .   S
    Zr20   O128      1.82612      .   S
    N129   O130      5.39102      .   S
    Zr13   O130      1.82602      .   S
    N129   O131      5.38867      .   S
    Zr9    O131      1.82541      .   S
    N129   O132      5.39060      .   S
    Zr15   O132      1.82448      .   S
    N129   O133      5.38777      .   S
    Zr11   O133      1.82593      .   S
    N134   O135      2.27879  1_556   S
    Zr3    O135      3.30177      .   S
    N134   O136      2.27931      .   S
    Zr1    O136      3.30850  1_545   S
    N137   O138      5.39018      .   S
    Zr23   O138      1.82434      .   S
    N137   O139      5.38790      .   S
    Zr18   O139      1.82611      .   S
    N137   O140      5.38836      .   S
    Zr16   O140      1.82467      .   S
    N137   O141      5.39126      .   S
    Zr21   O141      1.82616      .   S
    N142   O143      2.27879  1_556   S
    Zr2    O143      3.30178      .   S
    N142   O144      2.27930      .   S
    Zr0    O144      3.30850  1_545   S
    N145   O146      5.39102      .   S
    Zr12   O146      1.82603      .   S
    N145   O147      5.38867      .   S
    Zr8    O147      1.82540      .   S
    N145   O148      5.39060      .   S
    Zr14   O148      1.82446      .   S
    N145   O149      5.38779      .   S
    Zr10   O149      1.82591      .   S
    N150   O151      2.27892      .   S
    Zr5    O151      3.30793  1_565   S
    N150   O152      2.27930  1_554   S
    Zr7    O152      3.30249      .   S
    N153   O154      2.27930  1_554   S
    Zr6    O154      3.30249      .   S
    N153   O155      2.27892      .   S
    Zr4    O155      3.30793  1_565   S
