# CIF file generated by openbabel 2.4.90, see http://openbabel.sf.net
data_I
_chemical_name_common ''
_cell_length_a 18.448
_cell_length_b 12.012
_cell_length_c 12.576
_cell_angle_alpha 79.494
_cell_angle_beta 74.765
_cell_angle_gamma 78.175
_space_group_name_H-M_alt 'P 1'
_space_group_name_Hall 'P 1'
loop_
    _symmetry_equiv_pos_as_xyz
    x,y,z
loop_
    _atom_site_label
    _atom_site_type_symbol
    _atom_site_fract_x
    _atom_site_fract_y
    _atom_site_fract_z
    _atom_site_occupancy
    N0      N    0.99939   0.49998   0.49994   1.000
    N1      N    0.97553   0.77389   0.87968   1.000
    N2      N    0.50001   0.49998   0.50000   1.000
    N3      N    0.25001   0.99998   0.00000   1.000
    N4      N    0.02448   0.22609   0.12033   1.000
    N5      N    0.47553   0.77389   0.87968   1.000
    N6      N    0.75002   0.99998   0.99998   1.000
    N7      N    0.52449   0.22608   0.12031   1.000
    Zr8     Zr   0.50001   1.00000   0.00000   1.000
    O9      O    0.49839   0.86198   0.14381   1.000
    O10     O    0.51080   0.07156   0.03821   1.000
    O11     O    0.48922   0.92843   0.96179   1.000
    O12     O    0.50163   0.13800   0.85619   1.000
    Zr13    Zr   0.82451   0.16304   0.05243   1.000
    O14     O    0.79886   0.09460   0.03001   1.000
    O15     O    0.89295   0.20310   0.08927   1.000
    O16     O    0.74100   0.27426   0.19298   1.000
    O17     O    0.87790   0.28542   0.15804   1.000
    Zr18    Zr   0.00000   1.00000   0.00000   1.000
    O19     O    0.01079   0.07156   0.03821   1.000
    O20     O    0.98922   0.92843   0.96179   1.000
    O21     O    0.99823   0.86198   0.14378   1.000
    O22     O    0.00147   0.13800   0.85618   1.000
    Zr23    Zr   0.32450   0.16304   0.05250   1.000
    O24     O    0.29885   0.09460   0.03006   1.000
    O25     O    0.37805   0.28541   0.15809   1.000
    O26     O    0.39294   0.20310   0.08930   1.000
    O27     O    0.24084   0.27425   0.19301   1.000
    Zr28    Zr   0.67552   0.83692   0.94751   1.000
    O29     O    0.62198   0.71455   0.84191   1.000
    O30     O    0.60708   0.79686   0.91070   1.000
    O31     O    0.75887   0.72571   0.80697   1.000
    O32     O    0.70117   0.90536   0.96994   1.000
    Zr33    Zr   0.17551   0.83692   0.94751   1.000
    O34     O    0.20116   0.90536   0.96995   1.000
    O35     O    0.10707   0.79686   0.91070   1.000
    O36     O    0.25902   0.72571   0.80699   1.000
    O37     O    0.12181   0.71455   0.84190   1.000
loop_
    _geom_bond_atom_site_label_1
    _geom_bond_atom_site_label_2
    _geom_bond_distance
    _geom_bond_site_symmetry_2
    _ccdc_geom_bond_type
    Zr8    O9        2.21781      .   S
    N2     O9        5.64698      .   S
    Zr8    O10       1.13155  1_565   S
    N7     O10       2.36716      .   S
    Zr8    O11       1.13164  1_554   S
    N5     O11       2.36736      .   S
    Zr8    O12       2.21771  1_564   S
    N2     O12       5.64684      .   S
    Zr13   O14       1.13724      .   S
    N6     O14       1.73246  1_566   S
    Zr13   O15       1.63649      .   S
    N4     O15       2.63230  1_455   S
    Zr13   O16       2.42262      .   S
    N2     O16       5.64626      .   S
    Zr13   O17       2.62446      .   S
    N0     O17       6.45196      .   S
    Zr18   O19       1.13160  1_565   S
    N4     O19       2.36728      .   S
    Zr18   O20       1.13162  1_454   S
    N1     O20       2.36732      .   S
    Zr18   O21       2.21745  1_455   S
    N0     O21       5.64621      .   S
    Zr18   O22       2.21798  1_564   S
    N0     O22       5.64771  1_655   S
    Zr23   O24       1.13736      .   S
    N3     O24       1.73262  1_565   S
    Zr23   O25       2.62610      .   S
    N2     O25       6.45734      .   S
    Zr23   O26       1.63624      .   S
    N7     O26       2.63227      .   S
    Zr23   O27       2.42312      .   S
    N0     O27       5.64998  1_655   S
    Zr28   O29       2.62609      .   S
    N2     O29       6.45735      .   S
    Zr28   O30       1.63634      .   S
    N5     O30       2.63230      .   S
    Zr28   O31       2.42147      .   S
    N0     O31       5.64192      .   S
    Zr28   O32       1.13732      .   S
    N6     O32       1.73254      .   S
    Zr33   O34       1.13736      .   S
    N3     O34       1.73261  1_554   S
    Zr33   O35       1.63627      .   S
    N1     O35       2.63215  1_655   S
    Zr33   O36       2.42233      .   S
    N2     O36       5.64605      .   S
    Zr33   O37       2.62800      .   S
    N0     O37       6.46298  1_655   S
