# CIF file generated by openbabel 2.4.90, see http://openbabel.sf.net
data_I
_chemical_name_common ''
_cell_length_a 18.448
_cell_length_b 12.012
_cell_length_c 12.576
_cell_angle_alpha 79.494
_cell_angle_beta 74.765
_cell_angle_gamma 78.175
_space_group_name_H-M_alt 'P 1'
_space_group_name_Hall 'P 1'
loop_
    _symmetry_equiv_pos_as_xyz
    x,y,z
loop_
    _atom_site_label
    _atom_site_type_symbol
    _atom_site_fract_x
    _atom_site_fract_y
    _atom_site_fract_z
    _atom_site_occupancy
    Zr0     Zr   0.14370   0.74303   0.90286   1.000
    Zr1     Zr   0.64370   0.74303   0.90286   1.000
    Zr2     Zr   0.35632   0.25693   0.09715   1.000
    Zr3     Zr   0.85632   0.25693   0.09715   1.000
    Zr4     Zr   0.00000   1.00000   0.00000   1.000
    Zr5     Zr   0.50001   1.00000   0.00000   1.000
    Zr6     Zr   0.19321   0.89627   0.97144   1.000
    Zr7     Zr   0.69322   0.89627   0.97144   1.000
    Zr8     Zr   0.30680   0.10369   0.02856   1.000
    Zr9     Zr   0.80681   0.10369   0.02850   1.000
    Zr10    Zr   0.12675   0.90589   0.94794   1.000
    Zr11    Zr   0.62676   0.90589   0.94793   1.000
    Zr12    Zr   0.23841   0.80249   0.96781   1.000
    Zr13    Zr   0.73842   0.80249   0.96779   1.000
    Zr14    Zr   0.37327   0.09407   0.05207   1.000
    Zr15    Zr   0.87328   0.09408   0.05205   1.000
    Zr16    Zr   0.26160   0.19747   0.03221   1.000
    Zr17    Zr   0.76162   0.19747   0.03200   1.000
    O18     O    0.78422   0.15058   0.03025   1.000
    O19     O    0.84005   0.09888   0.04028   1.000
    O20     O    0.28420   0.15058   0.03039   1.000
    O21     O    0.34004   0.09888   0.04032   1.000
    O22     O    0.86480   0.17550   0.07460   1.000
    O23     O    0.36479   0.17550   0.07461   1.000
    O24     O    0.63523   0.82446   0.92540   1.000
    O25     O    0.13522   0.82446   0.92540   1.000
    O26     O    0.65999   0.90108   0.95969   1.000
    O27     O    0.15998   0.90108   0.95969   1.000
    O28     O    0.71582   0.84938   0.96962   1.000
    O29     O    0.21581   0.84938   0.96963   1.000
    N30     N    0.99939   0.49998   0.49994   1.000
    O31     O    0.93129   0.40779   0.26365   1.000
    O32     O    0.84222   0.61449   0.66643   1.000
    O33     O    0.06811   0.59217   0.73629   1.000
    O34     O    0.15718   0.38547   0.33351   1.000
    O35     O    0.99646   0.72397   0.28757   1.000
    O36     O    0.00294   0.27600   0.71235   1.000
    N37     N    0.97553   0.77389   0.87968   1.000
    O38     O    0.03863   0.75681   0.87389   1.000
    O39     O    0.97843   0.85686   0.92358   1.000
    N40     N    0.50001   0.49998   0.50000   1.000
    O41     O    0.43160   0.40779   0.26368   1.000
    O42     O    0.56843   0.59217   0.73632   1.000
    O43     O    0.49677   0.72397   0.28762   1.000
    O44     O    0.50325   0.27600   0.71238   1.000
    O45     O    0.65749   0.38547   0.33354   1.000
    O46     O    0.34253   0.61449   0.66646   1.000
    N47     N    0.25001   0.99998   0.00000   1.000
    O48     O    0.22681   0.97380   0.99239   1.000
    O49     O    0.27320   0.02616   0.00762   1.000
    N50     N    0.02448   0.22609   0.12033   1.000
    O51     O    0.02158   0.14312   0.07643   1.000
    O52     O    0.96138   0.24316   0.12612   1.000
    N53     N    0.47553   0.77389   0.87968   1.000
    O54     O    0.53863   0.75681   0.87389   1.000
    O55     O    0.47843   0.85686   0.92358   1.000
    N56     N    0.75002   0.99998   0.99998   1.000
    O57     O    0.77321   0.02616   0.00759   1.000
    O58     O    0.72682   0.97380   0.99238   1.000
    N59     N    0.52449   0.22608   0.12031   1.000
    O60     O    0.52159   0.14312   0.07642   1.000
    O61     O    0.46138   0.24316   0.12609   1.000
loop_
    _geom_bond_atom_site_label_1
    _geom_bond_atom_site_label_2
    _geom_bond_distance
    _geom_bond_site_symmetry_2
    _ccdc_geom_bond_type
    Zr9    O18       0.62849      .   S
    Zr17   O18       0.62849      .   S
    Zr9    O19       0.65670      .   S
    Zr15   O19       0.65670      .   S
    Zr8    O20       0.62851      .   S
    Zr16   O20       0.62851      .   S
    Zr8    O21       0.65653      .   S
    Zr14   O21       0.65653      .   S
    Zr15   O22       1.03767      .   S
    Zr3    O22       1.03767      .   S
    Zr14   O23       1.03765      .   S
    Zr2    O23       1.03765      .   S
    Zr1    O24       1.03765      .   S
    Zr11   O24       1.03765      .   S
    Zr0    O25       1.03766      .   S
    Zr10   O25       1.03766      .   S
    Zr11   O26       0.65652      .   S
    Zr7    O26       0.65652      .   S
    Zr10   O27       0.65650      .   S
    Zr6    O27       0.65650      .   S
    Zr13   O28       0.62850      .   S
    Zr7    O28       0.62850      .   S
    Zr12   O29       0.62852      .   S
    Zr6    O29       0.62852      .   S
    N30    O31       3.92013      .   S
    Zr3    O31       3.67608      .   S
    N30    O32       3.30272      .   S
    Zr1    O32       4.27445      .   S
    N30    O33       3.92747  1_655   S
    Zr0    O33       3.68381      .   S
    N30    O34       3.30947  1_655   S
    Zr2    O34       4.28083      .   S
    N30    O35       3.43083      .   S
    Zr4    O35       4.43491  1_455   S
    N30    O36       3.43182  1_655   S
    Zr4    O36       4.43596  1_564   S
    N37    O38       1.12490  1_655   S
    Zr0    O38       2.03335      .   S
    N37    O39       1.24059      .   S
    Zr4    O39       2.26323  1_454   S
    N40    O41       3.92382      .   S
    Zr2    O41       3.67999      .   S
    N40    O42       3.92385      .   S
    Zr1    O42       3.67994      .   S
    N40    O43       3.43126      .   S
    Zr5    O43       4.43562      .   S
    N40    O44       3.43121      .   S
    Zr5    O44       4.43543  1_564   S
    N40    O45       3.30612      .   S
    Zr3    O45       4.27760      .   S
    N40    O46       3.30616      .   S
    Zr0    O46       4.27768      .   S
    N47    O48       0.61549  1_554   S
    Zr6    O48       1.31642      .   S
    N47    O49       0.61549  1_565   S
    Zr8    O49       1.31640      .   S
    N50    O51       1.24057      .   S
    Zr4    O51       2.26319  1_565   S
    N50    O52       1.12490  1_455   S
    Zr3    O52       2.03336      .   S
    N53    O54       1.12497      .   S
    Zr1    O54       2.03342      .   S
    N53    O55       1.24061      .   S
    Zr5    O55       2.26329  1_554   S
    N56    O57       0.61545  1_566   S
    Zr9    O57       1.31619      .   S
    N56    O58       0.61545      .   S
    Zr7    O58       1.31635      .   S
    N59    O60       1.24050      .   S
    Zr5    O60       2.26310  1_565   S
    N59    O61       1.12500      .   S
    Zr2    O61       2.03330      .   S
