# CIF file generated by openbabel 2.4.90, see http://openbabel.sf.net
data_I
_chemical_name_common ''
_cell_length_a 13.449
_cell_length_b 13.571
_cell_length_c 13.962
_cell_angle_alpha 77.615
_cell_angle_beta 65.011
_cell_angle_gamma 63.881
_space_group_name_H-M_alt 'P 1'
_space_group_name_Hall 'P 1'
loop_
    _symmetry_equiv_pos_as_xyz
    x,y,z
loop_
    _atom_site_label
    _atom_site_type_symbol
    _atom_site_fract_x
    _atom_site_fract_y
    _atom_site_fract_z
    _atom_site_occupancy
    Zr0     Zr   0.48051   0.07907   0.33808   1.000
    Zr1     Zr   0.51951   0.92088   0.66191   1.000
    N2      N    0.00002   0.99997   0.00000   1.000
    O3      O    0.20365   0.97371   0.87123   1.000
    O4      O    0.79639   0.02624   0.12878   1.000
    N5      N    0.00005   0.50003   0.49996   1.000
    O6      O    0.19044   0.33931   0.43161   1.000
    O7      O    0.80963   0.66072   0.56833   1.000
    N8      N    0.99999   0.00003   0.49996   1.000
    O9      O    0.19009   0.02623   0.43646   1.000
    O10     O    0.80991   0.97379   0.56348   1.000
loop_
    _geom_bond_atom_site_label_1
    _geom_bond_atom_site_label_2
    _geom_bond_distance
    _geom_bond_site_symmetry_2
    _ccdc_geom_bond_type
    N2     O3        2.47284  1_554   S
    Zr1    O3        3.85081      .   S
    N2     O4        2.47290  1_465   S
    Zr0    O4        3.85091      .   S
    N5     O6        2.47706      .   S
    Zr0    O6        3.86526      .   S
    N5     O7        2.47700  1_455   S
    Zr1    O7        3.86501      .   S
    N8     O9        2.48978  1_655   S
    Zr0    O9        3.89446      .   S
    N8     O10       2.48984  1_545   S
    Zr1    O10       3.89467      .   S
