# CIF file generated by openbabel 2.4.90, see http://openbabel.sf.net
data_I
_chemical_name_common ''
_cell_length_a 13.449
_cell_length_b 13.571
_cell_length_c 13.962
_cell_angle_alpha 77.615
_cell_angle_beta 65.011
_cell_angle_gamma 63.881
_space_group_name_H-M_alt 'P 1'
_space_group_name_Hall 'P 1'
loop_
    _symmetry_equiv_pos_as_xyz
    x,y,z
loop_
    _atom_site_label
    _atom_site_type_symbol
    _atom_site_fract_x
    _atom_site_fract_y
    _atom_site_fract_z
    _atom_site_occupancy
    Zr0     Zr   0.48051   0.07907   0.33808   1.000
    Zr1     Zr   0.51951   0.92088   0.66191   1.000
    N2      N    0.00002   0.99997   0.00000   1.000
    O3      O    0.20365   0.97371   0.87123   1.000
    O4      O    0.79639   0.02624   0.12878   1.000
    N5      N    0.40281   0.36225   0.85306   1.000
    O6      O    0.44813   0.19008   0.77837   1.000
    N7      N    0.00005   0.50003   0.49996   1.000
    O8      O    0.19044   0.33931   0.43161   1.000
    O9      O    0.80963   0.66072   0.56833   1.000
    N10     N    0.99999   0.00003   0.49996   1.000
    O11     O    0.19009   0.02623   0.43646   1.000
    O12     O    0.80991   0.97379   0.56348   1.000
    N13     N    0.59718   0.63771   0.14690   1.000
    O14     O    0.55186   0.80988   0.22159   1.000
    N15     N    0.57693   0.21042   0.36170   1.000
    O16     O    0.55283   0.17758   0.35579   1.000
    N17     N    0.63130   0.89835   0.43045   1.000
    O18     O    0.59360   0.94353   0.40736   1.000
    N19     N    0.42311   0.78943   0.63841   1.000
    O20     O    0.44721   0.82229   0.64428   1.000
    N21     N    0.36862   0.10147   0.56955   1.000
    O22     O    0.40634   0.05632   0.59264   1.000
    N23     N    0.57161   0.84439   0.84375   1.000
    O24     O    0.55859   0.86351   0.79829   1.000
    N25     N    0.42852   0.15559   0.15617   1.000
    O26     O    0.44152   0.13646   0.20165   1.000
loop_
    _geom_bond_atom_site_label_1
    _geom_bond_atom_site_label_2
    _geom_bond_distance
    _geom_bond_site_symmetry_2
    _ccdc_geom_bond_type
    N2     O3        2.47284  1_554   S
    Zr1    O3        3.85081      .   S
    N2     O4        2.47290  1_465   S
    Zr0    O4        3.85091      .   S
    N5     O6        2.48456      .   S
    Zr1    O6        3.87993  1_565   S
    N7     O8        2.47706      .   S
    Zr0    O8        3.86526      .   S
    N7     O9        2.47700  1_455   S
    Zr1    O9        3.86501      .   S
    N10    O11       2.48978  1_655   S
    Zr0    O11       3.89446      .   S
    N10    O12       2.48984  1_545   S
    Zr1    O12       3.89467      .   S
    N13    O14       2.48461      .   S
    Zr0    O14       3.88002  1_545   S
    N15    O16       0.68998      .   S
    Zr0    O16       2.06993      .   S
    N17    O18       0.71871      .   S
    Zr0    O18       2.15612  1_545   S
    N19    O20       0.69002      .   S
    Zr1    O20       2.07007      .   S
    N21    O22       0.71867      .   S
    Zr1    O22       2.15600  1_565   S
    N23    O24       0.69580      .   S
    Zr1    O24       2.08740      .   S
    N25    O26       0.69586      .   S
    Zr0    O26       2.08758      .   S
