# CIF file generated by openbabel 2.4.90, see http://openbabel.sf.net
data_I
_chemical_name_common ''
_cell_length_a 23.263
_cell_length_b 15.816
_cell_length_c 15.993
_cell_angle_alpha 90.014
_cell_angle_beta 89.916
_cell_angle_gamma 90.006
_space_group_name_H-M_alt 'P 1'
_space_group_name_Hall 'P 1'
loop_
    _symmetry_equiv_pos_as_xyz
    x,y,z
loop_
    _atom_site_label
    _atom_site_type_symbol
    _atom_site_fract_x
    _atom_site_fract_y
    _atom_site_fract_z
    _atom_site_occupancy
    Zn0     Zn   0.56730   0.99984   0.57994   1.000
    Zn1     Zn   0.07415   0.99977   0.75697   1.000
    Zn2     Zn   0.57481   0.00031   0.75724   1.000
    Zn3     Zn   0.31750   0.00007   0.42069   1.000
    Zn4     Zn   0.81753   0.00001   0.42000   1.000
    Zn5     Zn   0.32507   0.99993   0.24350   1.000
    Zn6     Zn   0.82504   0.99984   0.24279   1.000
    Zn7     Zn   0.06744   0.99973   0.57978   1.000
    C8      C    0.24518   0.12398   0.33299   1.000
    C9      C    0.49506   0.87670   0.67038   1.000
    C10     C    0.99354   0.87837   0.66858   1.000
    C11     C    0.14669   0.87659   0.66941   1.000
    C12     C    0.64767   0.87813   0.67326   1.000
    C13     C    0.49432   0.12209   0.66832   1.000
    C14     C    0.99552   0.12380   0.66771   1.000
    C15     C    0.14871   0.12028   0.67421   1.000
    C16     C    0.64836   0.12174   0.66988   1.000
    C17     C    0.74546   0.12209   0.33007   1.000
    C18     C    0.39758   0.12204   0.33210   1.000
    C19     C    0.89857   0.12206   0.32388   1.000
    C20     C    0.24530   0.87799   0.33250   1.000
    C21     C    0.74523   0.87599   0.33287   1.000
    C22     C    0.39866   0.87798   0.32583   1.000
    C23     C    0.89765   0.87805   0.33201   1.000
    O24     O    0.12552   0.90100   0.59984   1.000
    O25     O    0.62783   0.90487   0.60371   1.000
    O26     O    0.00239   0.91124   0.59710   1.000
    O27     O    0.50489   0.90771   0.59828   1.000
    O28     O    0.13807   0.91106   0.74035   1.000
    O29     O    0.63793   0.91028   0.74500   1.000
    O30     O    0.01452   0.90450   0.73775   1.000
    O31     O    0.51489   0.90453   0.73950   1.000
    O32     O    0.12969   0.09242   0.60455   1.000
    O33     O    0.62730   0.09619   0.60060   1.000
    O34     O    0.00547   0.09254   0.59572   1.000
    O35     O    0.50286   0.08915   0.59670   1.000
    O36     O    0.13787   0.08950   0.74620   1.000
    O37     O    0.63949   0.08865   0.74138   1.000
    O38     O    0.01496   0.09581   0.73702   1.000
    O39     O    0.51531   0.09572   0.73732   1.000
    O40     O    0.37777   0.09582   0.40207   1.000
    O41     O    0.87758   0.09576   0.39294   1.000
    O42     O    0.25471   0.09248   0.40476   1.000
    O43     O    0.75387   0.08910   0.40160   1.000
    O44     O    0.38764   0.08939   0.26078   1.000
    O45     O    0.88978   0.08942   0.25202   1.000
    O46     O    0.26501   0.09596   0.26360   1.000
    O47     O    0.76699   0.09628   0.26113   1.000
    O48     O    0.37757   0.90422   0.39488   1.000
    O49     O    0.87781   0.90430   0.40189   1.000
    O50     O    0.25335   0.91122   0.40411   1.000
    O51     O    0.75470   0.90764   0.40463   1.000
    O52     O    0.38989   0.91056   0.25394   1.000
    O53     O    0.88774   0.91066   0.26063   1.000
    O54     O    0.26718   0.90363   0.26376   1.000
    O55     O    0.76504   0.90398   0.26357   1.000
loop_
    _geom_bond_atom_site_label_1
    _geom_bond_atom_site_label_2
    _geom_bond_distance
    _geom_bond_site_symmetry_2
    _ccdc_geom_bond_type
    Zn6    O45       2.07303  1_565   S
    Zn6    O53       2.04931      .   S
    Zn6    O47       2.05808  1_565   S
    Zn6    O55       2.08707      .   S
    Zn5    O52       2.07379      .   S
    Zn5    O44       2.04877  1_565   S
    Zn5    O46       2.08835  1_565   S
    Zn5    O54       2.05841      .   S
    O45    C19       1.27651      .   S
    O52    C22       1.27676      .   S
    O53    C23       1.27413      .   S
    O44    C18       1.27340      .   S
    O47    C17       1.27722      .   S
    O55    C21       1.27881      .   S
    O46    C8        1.28025      .   S
    O54    C20       1.27700      .   S
    C19    O41       1.27664      .   S
    C22    O48       1.27696      .   S
    C17    O43       1.27288      .   S
    C23    O49       1.27776      .   S
    C18    O40       1.27878      .   S
    C20    O50       1.27402      .   S
    C21    O51       1.27143      .   S
    C8     O42       1.27118      .   S
    O41    Zn4       2.10499      .   S
    O48    Zn3       2.10237  1_565   S
    O43    Zn4       2.06565      .   S
    O49    Zn4       2.08344  1_565   S
    O40    Zn3       2.08464      .   S
    O50    Zn3       2.06719  1_565   S
    O51    Zn4       2.08119  1_565   S
    O42    Zn3       2.08246      .   S
    Zn7    O34       2.07297  1_565   S
    Zn7    O26       2.07938      .   S
    Zn7    O24       2.09011      .   S
    Zn7    O32       2.09863  1_565   S
    Zn0    O35       2.07677  1_565   S
    Zn0    O27       2.07746      .   S
    Zn0    O33       2.09280  1_565   S
    Zn0    O25       2.09422      .   S
    O34    C14       1.27381  1_455   S
    O35    C13       1.27354      .   S
    O26    C10       1.27240  1_455   S
    O27    C9        1.27357      .   S
    O24    C11       1.27723      .   S
    O33    C16       1.27758      .   S
    O25    C12       1.27713      .   S
    O32    C15       1.27760      .   S
    C14    O38       1.27709  1_655   S
    C13    O39       1.27743      .   S
    C10    O30       1.27830  1_655   S
    C11    O28       1.27427      .   S
    C16    O37       1.27420      .   S
    C9     O31       1.27660      .   S
    C12    O29       1.27486      .   S
    C15    O36       1.27498      .   S
    O38    Zn1       2.07531  1_545   S
    O39    Zn2       2.07286      .   S
    O30    Zn1       2.07112      .   S
    O31    Zn2       2.07822  1_565   S
    O28    Zn1       2.06139      .   S
    O37    Zn2       2.06854      .   S
    O29    Zn2       2.05461  1_565   S
    O36    Zn1       2.05907  1_545   S
    Zn7    Zn1       2.83832      .   S
    Zn0    Zn2       2.84120  1_565   S
    Zn3    Zn5       2.83901  1_545   S
    Zn4    Zn6       2.83925  1_545   S
