# CIF file generated by openbabel 2.4.90, see http://openbabel.sf.net
data_I
_chemical_name_common ''
_cell_length_a 23.263
_cell_length_b 15.816
_cell_length_c 15.993
_cell_angle_alpha 90.014
_cell_angle_beta 89.916
_cell_angle_gamma 90.006
_space_group_name_H-M_alt 'P 1'
_space_group_name_Hall 'P 1'
loop_
    _symmetry_equiv_pos_as_xyz
    x,y,z
loop_
    _atom_site_label
    _atom_site_type_symbol
    _atom_site_fract_x
    _atom_site_fract_y
    _atom_site_fract_z
    _atom_site_occupancy
    C0      C    0.24518   0.12398   0.33299   1.000
    C1      C    0.49506   0.87670   0.67038   1.000
    C2      C    0.99354   0.87837   0.66858   1.000
    C3      C    0.14669   0.87659   0.66941   1.000
    C4      C    0.64767   0.87813   0.67326   1.000
    C5      C    0.49432   0.12209   0.66832   1.000
    C6      C    0.99552   0.12380   0.66771   1.000
    C7      C    0.14871   0.12028   0.67421   1.000
    C8      C    0.64836   0.12174   0.66988   1.000
    C9      C    0.74546   0.12209   0.33007   1.000
    C10     C    0.39758   0.12204   0.33210   1.000
    C11     C    0.89857   0.12206   0.32388   1.000
    C12     C    0.24530   0.87799   0.33250   1.000
    C13     C    0.74523   0.87599   0.33287   1.000
    C14     C    0.39866   0.87798   0.32583   1.000
    C15     C    0.89765   0.87805   0.33201   1.000
