# CIF file generated by openbabel 2.4.90, see http://openbabel.sf.net
data_I
_chemical_name_common ''
_cell_length_a 23.263
_cell_length_b 15.816
_cell_length_c 15.993
_cell_angle_alpha 90.014
_cell_angle_beta 89.916
_cell_angle_gamma 90.006
_space_group_name_H-M_alt 'P 1'
_space_group_name_Hall 'P 1'
loop_
    _symmetry_equiv_pos_as_xyz
    x,y,z
loop_
    _atom_site_label
    _atom_site_type_symbol
    _atom_site_fract_x
    _atom_site_fract_y
    _atom_site_fract_z
    _atom_site_occupancy
    N0      N    0.06663   0.99453   0.16812   1.000
    N1      N    0.82101   0.50039   0.67181   1.000
    N2      N    0.32097   0.49928   0.67328   1.000
    N3      N    0.57151   0.49921   0.32799   1.000
    N4      N    0.07144   0.50077   0.32805   1.000
    N5      N    0.31706   0.00300   0.83205   1.000
    N6      N    0.56749   0.00850   0.16831   1.000
    N7      N    0.81678   0.99570   0.83140   1.000
    Zr8     Zr   0.57129   0.99971   0.67011   1.000
    O9      O    0.65777   0.16488   0.67020   1.000
    O10     O    0.48470   0.16469   0.67099   1.000
    O11     O    0.65758   0.83497   0.67103   1.000
    O12     O    0.57019   0.00311   0.83257   1.000
    O13     O    0.56980   0.00203   0.50599   1.000
    O14     O    0.48483   0.83439   0.67150   1.000
    Zr15    Zr   0.32160   0.00038   0.33111   1.000
    O16     O    0.23519   0.16587   0.33027   1.000
    O17     O    0.40785   0.16500   0.33073   1.000
    O18     O    0.32023   0.00144   0.16829   1.000
    O19     O    0.40813   0.83499   0.32940   1.000
    O20     O    0.23517   0.83543   0.33016   1.000
    O21     O    0.31992   0.00077   0.49489   1.000
    Zr22    Zr   0.82164   0.99966   0.33000   1.000
    O23     O    0.81985   0.99897   0.49396   1.000
    O24     O    0.73526   0.83411   0.32969   1.000
    O25     O    0.90809   0.16505   0.32837   1.000
    O26     O    0.73522   0.16458   0.32902   1.000
    O27     O    0.90789   0.83506   0.33017   1.000
    O28     O    0.82018   0.99799   0.16736   1.000
    Zr29    Zr   0.07104   0.99976   0.66966   1.000
    O30     O    0.15771   0.16428   0.67140   1.000
    O31     O    0.98485   0.16540   0.67020   1.000
    O32     O    0.98437   0.83509   0.67043   1.000
    O33     O    0.06958   0.99778   0.83222   1.000
    O34     O    0.06949   0.99842   0.50569   1.000
    O35     O    0.15723   0.83436   0.67035   1.000
loop_
    _geom_bond_atom_site_label_1
    _geom_bond_atom_site_label_2
    _geom_bond_distance
    _geom_bond_site_symmetry_2
    _ccdc_geom_bond_type
    Zr8    O9        3.29717  1_565   S
    N1     O9        6.52491      .   S
    Zr8    O10       3.29664  1_565   S
    N2     O10       6.52041      .   S
    Zr8    O11       3.28932      .   S
    N1     O11       6.51630      .   S
    Zr8    O12       2.59890  1_565   S
    N6     O12       5.37043  1_554   S
    Zr8    O13       2.62523  1_565   S
    N6     O13       5.40189      .   S
    Zr8    O14       3.29868      .   S
    N2     O14       6.52808      .   S
    Zr15   O16       3.30050      .   S
    N4     O16       6.52467      .   S
    Zr15   O17       3.28691      .   S
    N3     O17       6.51405      .   S
    Zr15   O18       2.60423      .   S
    N5     O18       5.37813  1_556   S
    Zr15   O19       3.30091  1_545   S
    N3     O19       6.53089      .   S
    Zr15   O20       3.29366  1_545   S
    N4     O20       6.52065      .   S
    Zr15   O21       2.61962      .   S
    N5     O21       5.39266      .   S
    Zr22   O23       2.62255      .   S
    N7     O23       5.39715      .   S
    Zr22   O24       3.30034      .   S
    N3     O24       6.52408      .   S
    Zr22   O25       3.29952  1_565   S
    N4     O25       6.52909  1_455   S
    Zr22   O26       3.29352  1_565   S
    N3     O26       6.52070      .   S
    Zr22   O27       3.28696      .   S
    N4     O27       6.51415  1_455   S
    Zr22   O28       2.60155      .   S
    N7     O28       5.37387  1_556   S
    Zr29   O30       3.29184  1_565   S
    N2     O30       6.51873      .   S
    Zr29   O31       3.29917  1_465   S
    N1     O31       6.52691      .   S
    Zr29   O32       3.29344  1_455   S
    N1     O32       6.51620      .   S
    Zr29   O33       2.60025      .   S
    N0     O33       5.37269  1_554   S
    Zr29   O34       2.62273      .   S
    N0     O34       5.39952      .   S
    Zr29   O35       3.29625      .   S
    N2     O35       6.52698      .   S
