# CIF file generated by openbabel 2.4.90, see http://openbabel.sf.net
data_I
_chemical_name_common ''
_cell_length_a 23.263
_cell_length_b 15.816
_cell_length_c 15.993
_cell_angle_alpha 90.014
_cell_angle_beta 89.916
_cell_angle_gamma 90.006
_space_group_name_H-M_alt 'P 1'
_space_group_name_Hall 'P 1'
loop_
    _symmetry_equiv_pos_as_xyz
    x,y,z
loop_
    _atom_site_label
    _atom_site_type_symbol
    _atom_site_fract_x
    _atom_site_fract_y
    _atom_site_fract_z
    _atom_site_occupancy
    C0      C    0.06744   0.99973   0.57978   1.000
    C1      C    0.56730   0.99984   0.57994   1.000
    C2      C    0.07415   0.99977   0.75697   1.000
    C3      C    0.57481   0.00031   0.75724   1.000
    C4      C    0.31750   0.00007   0.42069   1.000
    C5      C    0.81753   0.00001   0.42000   1.000
    C6      C    0.32507   0.99993   0.24350   1.000
    C7      C    0.82504   0.99984   0.24279   1.000
    C8      C    0.14742   0.74935   0.55680   1.000
    C9      C    0.64642   0.75156   0.56036   1.000
    C10     C    0.29359   0.70881   0.77891   1.000
    C11     C    0.79536   0.70891   0.77810   1.000
    C12     C    0.22951   0.83482   0.78128   1.000
    C13     C    0.73239   0.83604   0.78222   1.000
    C14     C    0.43047   0.62688   0.79474   1.000
    C15     C    0.93233   0.62604   0.79055   1.000
    C16     C    0.49139   0.75686   0.79109   1.000
    C17     C    0.99262   0.75660   0.78678   1.000
    C18     C    0.20877   0.62078   0.55593   1.000
    C19     C    0.70722   0.62237   0.55728   1.000
    C20     C    0.41400   0.82900   0.55833   1.000
    C21     C    0.91055   0.83234   0.55846   1.000
    C22     C    0.34921   0.70412   0.56544   1.000
    C23     C    0.84666   0.70652   0.56576   1.000
    C24     C    0.14772   0.24653   0.56096   1.000
    C25     C    0.64846   0.24790   0.55620   1.000
    C26     C    0.29599   0.29031   0.77940   1.000
    C27     C    0.79502   0.29136   0.77726   1.000
    C28     C    0.23346   0.16275   0.78326   1.000
    C29     C    0.73156   0.16468   0.78067   1.000
    C30     C    0.43333   0.37413   0.79141   1.000
    C31     C    0.93143   0.37393   0.79173   1.000
    C32     C    0.49379   0.24380   0.78682   1.000
    C33     C    0.99232   0.24389   0.78797   1.000
    C34     C    0.20806   0.37613   0.55824   1.000
    C35     C    0.70923   0.37714   0.55427   1.000
    C36     C    0.41130   0.16862   0.55860   1.000
    C37     C    0.91457   0.17155   0.55546   1.000
    C38     C    0.34730   0.29422   0.56667   1.000
    C39     C    0.84973   0.29637   0.56284   1.000
    C40     C    0.16962   0.00358   0.29548   1.000
    C41     C    0.66996   0.99631   0.29616   1.000
    C42     C    0.48207   0.00472   0.43726   1.000
    C43     C    0.98209   0.99651   0.43775   1.000
    C44     C    0.16062   0.00271   0.45183   1.000
    C45     C    0.66049   0.99628   0.45238   1.000
    C46     C    0.48473   0.00596   0.28067   1.000
    C47     C    0.98427   0.99642   0.28107   1.000
    C48     C    0.46419   0.03491   0.03435   1.000
    C49     C    0.96468   0.95506   0.03416   1.000
    C50     C    0.47832   0.02368   0.87770   1.000
    C51     C    0.97879   0.96303   0.87714   1.000
    C52     C    0.15083   0.02350   0.90434   1.000
    C53     C    0.65438   0.99766   0.90458   1.000
    C54     C    0.14397   0.01722   0.06220   1.000
    C55     C    0.64743   0.00664   0.06218   1.000
    C56     C    0.42637   0.50003   0.69045   1.000
    C57     C    0.92645   0.50090   0.68825   1.000
    C58     C    0.21547   0.49909   0.65927   1.000
    C59     C    0.71548   0.49955   0.65768   1.000
    C60     C    0.39765   0.24937   0.44450   1.000
    C61     C    0.89713   0.24766   0.43795   1.000
    C62     C    0.04660   0.29240   0.22071   1.000
    C63     C    0.54458   0.28986   0.22285   1.000
    C64     C    0.48116   0.16329   0.22076   1.000
    C65     C    0.98354   0.16552   0.21529   1.000
    C66     C    0.18314   0.37513   0.20923   1.000
    C67     C    0.68185   0.37296   0.20748   1.000
    C68     C    0.24422   0.24561   0.21393   1.000
    C69     C    0.74275   0.24306   0.21066   1.000
    C70     C    0.45881   0.37814   0.44538   1.000
    C71     C    0.95786   0.37687   0.44221   1.000
    C72     C    0.16285   0.17093   0.44345   1.000
    C73     C    0.66296   0.16793   0.44110   1.000
    C74     C    0.09838   0.29617   0.43562   1.000
    C75     C    0.59842   0.29299   0.43457   1.000
    C76     C    0.39798   0.75258   0.44041   1.000
    C77     C    0.89745   0.75056   0.44398   1.000
    C78     C    0.04519   0.71064   0.22333   1.000
    C79     C    0.54640   0.70777   0.22167   1.000
    C80     C    0.48337   0.83461   0.21688   1.000
    C81     C    0.98178   0.83727   0.22118   1.000
    C82     C    0.18311   0.62648   0.20974   1.000
    C83     C    0.68383   0.62405   0.20980   1.000
    C84     C    0.24386   0.75651   0.21373   1.000
    C85     C    0.74486   0.75364   0.21438   1.000
    C86     C    0.45868   0.62337   0.44000   1.000
    C87     C    0.95848   0.62167   0.44479   1.000
    C88     C    0.16196   0.83216   0.44260   1.000
    C89     C    0.66271   0.82930   0.44300   1.000
    C90     C    0.09757   0.70708   0.43499   1.000
    C91     C    0.59827   0.70413   0.43523   1.000
    C92     C    0.42025   0.99652   0.70430   1.000
    C93     C    0.91971   0.00513   0.70370   1.000
    C94     C    0.23234   0.99847   0.56381   1.000
    C95     C    0.73212   0.99885   0.56246   1.000
    C96     C    0.41091   0.99826   0.54819   1.000
    C97     C    0.91065   0.00486   0.54744   1.000
    C98     C    0.23481   0.99861   0.72028   1.000
    C99     C    0.73433   0.99719   0.71895   1.000
    C100    C    0.23933   0.10651   0.96641   1.000
    C101    C    0.73713   0.89434   0.96594   1.000
    C102    C    0.25444   0.09739   0.12335   1.000
    C103    C    0.75269   0.90336   0.12275   1.000
    C104    C    0.37675   0.90981   0.09630   1.000
    C105    C    0.87861   0.08563   0.09474   1.000
    C106    C    0.36831   0.91259   0.93838   1.000
    C107    C    0.86991   0.08249   0.93680   1.000
    C108    C    0.17690   0.50112   0.31204   1.000
    C109    C    0.67688   0.49855   0.31100   1.000
    C110    C    0.46596   0.49975   0.34270   1.000
    C111    C    0.96581   0.50045   0.34148   1.000
    C112    C    0.45647   0.80100   0.67460   1.000
    C113    C    0.95523   0.80256   0.67261   1.000
    C114    C    0.49506   0.87670   0.67038   1.000
    C115    C    0.99354   0.87837   0.66858   1.000
    C116    C    0.18509   0.80069   0.66822   1.000
    C117    C    0.68578   0.80202   0.67090   1.000
    C118    C    0.14669   0.87659   0.66941   1.000
    C119    C    0.64767   0.87813   0.67326   1.000
    C120    C    0.25559   0.65561   0.66748   1.000
    C121    C    0.75552   0.65629   0.66777   1.000
    C122    C    0.38573   0.65624   0.68013   1.000
    C123    C    0.88547   0.65704   0.67810   1.000
    C124    C    0.35096   0.57758   0.68017   1.000
    C125    C    0.85091   0.57828   0.67837   1.000
    C126    C    0.29058   0.57729   0.66910   1.000
    C127    C    0.79048   0.57794   0.66799   1.000
    C128    C    0.17950   0.73986   0.60523   1.000
    C129    C    0.67906   0.74149   0.60786   1.000
    C130    C    0.26149   0.71752   0.73010   1.000
    C131    C    0.76253   0.71795   0.73039   1.000
    C132    C    0.22610   0.78832   0.73126   1.000
    C133    C    0.72758   0.78919   0.73274   1.000
    C134    C    0.42633   0.67178   0.74331   1.000
    C135    C    0.92709   0.67177   0.74007   1.000
    C136    C    0.46049   0.74413   0.74152   1.000
    C137    C    0.96084   0.74447   0.73826   1.000
    C138    C    0.21378   0.66776   0.60534   1.000
    C139    C    0.71299   0.66904   0.60680   1.000
    C140    C    0.41650   0.78544   0.61090   1.000
    C141    C    0.91424   0.78787   0.61010   1.000
    C142    C    0.38081   0.71500   0.61457   1.000
    C143    C    0.87907   0.71690   0.61380   1.000
    C144    C    0.45618   0.19808   0.67260   1.000
    C145    C    0.95712   0.19963   0.67168   1.000
    C146    C    0.49432   0.12209   0.66832   1.000
    C147    C    0.99552   0.12380   0.66771   1.000
    C148    C    0.18689   0.19638   0.67177   1.000
    C149    C    0.68665   0.19772   0.66770   1.000
    C150    C    0.14871   0.12028   0.67421   1.000
    C151    C    0.64836   0.12174   0.66988   1.000
    C152    C    0.25621   0.34271   0.66901   1.000
    C153    C    0.75645   0.34347   0.66578   1.000
    C154    C    0.38619   0.34338   0.67918   1.000
    C155    C    0.88646   0.34428   0.67730   1.000
    C156    C    0.35126   0.42180   0.67998   1.000
    C157    C    0.85140   0.42259   0.67781   1.000
    C158    C    0.29082   0.42147   0.66956   1.000
    C159    C    0.79101   0.42221   0.66700   1.000
    C160    C    0.18021   0.25680   0.60864   1.000
    C161    C    0.68065   0.25803   0.60435   1.000
    C162    C    0.26329   0.28105   0.73160   1.000
    C163    C    0.76284   0.28199   0.72867   1.000
    C164    C    0.22856   0.20953   0.73375   1.000
    C165    C    0.72780   0.21083   0.73041   1.000
    C166    C    0.42804   0.32859   0.74075   1.000
    C167    C    0.92722   0.32895   0.74036   1.000
    C168    C    0.46191   0.25601   0.73847   1.000
    C169    C    0.96136   0.25662   0.73849   1.000
    C170    C    0.21390   0.32954   0.60779   1.000
    C171    C    0.71459   0.33050   0.60389   1.000
    C172    C    0.41507   0.21295   0.61041   1.000
    C173    C    0.91715   0.21514   0.60801   1.000
    C174    C    0.37981   0.28379   0.61460   1.000
    C175    C    0.88145   0.28554   0.61181   1.000
    C176    C    0.05329   0.98671   0.05904   1.000
    C177    C    0.55475   0.01923   0.05920   1.000
    C178    C    0.12774   0.00169   0.32577   1.000
    C179    C    0.62801   0.99866   0.32616   1.000
    C180    C    0.02270   0.99770   0.40389   1.000
    C181    C    0.52278   0.00341   0.40368   1.000
    C182    C    0.12264   0.00119   0.41228   1.000
    C183    C    0.62264   0.99864   0.41263   1.000
    C184    C    0.07776   0.99913   0.27741   1.000
    C185    C    0.57821   0.00253   0.27750   1.000
    C186    C    0.02392   0.99726   0.31718   1.000
    C187    C    0.52428   0.00458   0.31696   1.000
    C188    C    0.00628   0.97078   0.00687   1.000
    C189    C    0.50668   0.02574   0.00712   1.000
    C190    C    0.01384   0.97535   0.92066   1.000
    C191    C    0.51431   0.01948   0.92106   1.000
    C192    C    0.11060   0.00895   0.93630   1.000
    C193    C    0.61322   0.00486   0.93640   1.000
    C194    C    0.10675   0.00574   0.02260   1.000
    C195    C    0.60936   0.00979   0.02285   1.000
    C196    C    0.37957   0.49981   0.68590   1.000
    C197    C    0.87965   0.50061   0.68382   1.000
    C198    C    0.26225   0.49924   0.66384   1.000
    C199    C    0.76227   0.49990   0.66208   1.000
    C200    C    0.20705   0.19995   0.32860   1.000
    C201    C    0.70673   0.19752   0.32608   1.000
    C202    C    0.24518   0.12398   0.33299   1.000
    C203    C    0.74546   0.12209   0.33007   1.000
    C204    C    0.43584   0.19799   0.33331   1.000
    C205    C    0.93671   0.19819   0.32699   1.000
    C206    C    0.39758   0.12204   0.33210   1.000
    C207    C    0.89857   0.12206   0.32388   1.000
    C208    C    0.00651   0.34405   0.33150   1.000
    C209    C    0.50600   0.34322   0.33397   1.000
    C210    C    0.13660   0.34471   0.32222   1.000
    C211    C    0.63612   0.34236   0.32114   1.000
    C212    C    0.10166   0.42308   0.32157   1.000
    C213    C    0.60141   0.42106   0.32139   1.000
    C214    C    0.04119   0.42274   0.33159   1.000
    C215    C    0.54102   0.42149   0.33247   1.000
    C216    C    0.42987   0.25888   0.39619   1.000
    C217    C    0.92990   0.25816   0.39058   1.000
    C218    C    0.01372   0.28289   0.26841   1.000
    C219    C    0.51225   0.28123   0.27149   1.000
    C220    C    0.47705   0.21021   0.27032   1.000
    C221    C    0.97874   0.21165   0.26544   1.000
    C222    C    0.17821   0.32982   0.26017   1.000
    C223    C    0.67728   0.32755   0.25841   1.000
    C224    C    0.21232   0.25751   0.26248   1.000
    C225    C    0.71144   0.25523   0.25993   1.000
    C226    C    0.46401   0.33112   0.39600   1.000
    C227    C    0.96382   0.33063   0.39232   1.000
    C228    C    0.16619   0.21501   0.39139   1.000
    C229    C    0.66608   0.21219   0.38923   1.000
    C230    C    0.13068   0.28556   0.38728   1.000
    C231    C    0.63050   0.28274   0.38580   1.000
    C232    C    0.20676   0.80238   0.32828   1.000
    C233    C    0.70728   0.79984   0.32863   1.000
    C234    C    0.24530   0.87799   0.33250   1.000
    C235    C    0.74523   0.87599   0.33287   1.000
    C236    C    0.43697   0.80200   0.32895   1.000
    C237    C    0.93604   0.80225   0.33325   1.000
    C238    C    0.39866   0.87798   0.32583   1.000
    C239    C    0.89765   0.87805   0.33201   1.000
    C240    C    0.00612   0.65689   0.33388   1.000
    C241    C    0.50677   0.65608   0.33270   1.000
    C242    C    0.13629   0.65742   0.32239   1.000
    C243    C    0.63685   0.65505   0.32231   1.000
    C244    C    0.10150   0.57882   0.32198   1.000
    C245    C    0.60180   0.57680   0.32167   1.000
    C246    C    0.04104   0.57853   0.33230   1.000
    C247    C    0.54137   0.57730   0.33233   1.000
    C248    C    0.43049   0.74208   0.39265   1.000
    C249    C    0.92982   0.74116   0.39585   1.000
    C250    C    0.01266   0.71911   0.27171   1.000
    C251    C    0.51373   0.71727   0.26967   1.000
    C252    C    0.47877   0.78850   0.26705   1.000
    C253    C    0.97748   0.79018   0.27053   1.000
    C254    C    0.17805   0.67204   0.26045   1.000
    C255    C    0.67870   0.66961   0.26052   1.000
    C256    C    0.21212   0.74442   0.26242   1.000
    C257    C    0.71279   0.74195   0.26275   1.000
    C258    C    0.46441   0.66959   0.39404   1.000
    C259    C    0.96390   0.66887   0.39567   1.000
    C260    C    0.16560   0.78783   0.39076   1.000
    C261    C    0.66624   0.78505   0.39117   1.000
    C262    C    0.13009   0.71721   0.38686   1.000
    C263    C    0.63074   0.71450   0.38709   1.000
    C264    C    0.30350   0.01093   0.94130   1.000
    C265    C    0.80315   0.98707   0.94037   1.000
    C266    C    0.37828   0.99748   0.67449   1.000
    C267    C    0.87783   0.00321   0.67366   1.000
    C268    C    0.27303   0.99865   0.59728   1.000
    C269    C    0.77273   0.99965   0.59610   1.000
    C270    C    0.37298   0.99826   0.58000   1.000
    C271    C    0.87268   0.00330   0.58715   1.000
    C272    C    0.32839   0.99859   0.72323   1.000
    C273    C    0.82788   0.00003   0.72221   1.000
    C274    C    0.27445   0.99901   0.68400   1.000
    C275    C    0.77401   0.99842   0.68280   1.000
    C276    C    0.27023   0.06261   0.99347   1.000
    C277    C    0.76899   0.93693   0.99270   1.000
    C278    C    0.27834   0.05805   0.07938   1.000
    C279    C    0.77731   0.94152   0.07863   1.000
    C280    C    0.34749   0.95275   0.06419   1.000
    C281    C    0.84848   0.04377   0.06280   1.000
    C282    C    0.34273   0.95441   0.97769   1.000
    C283    C    0.84358   0.04196   0.97640   1.000
    C284    C    0.13008   0.50102   0.31618   1.000
    C285    C    0.63008   0.49879   0.31566   1.000
    C286    C    0.01264   0.50053   0.33730   1.000
    C287    C    0.51274   0.49956   0.33803   1.000
    C288    C    0.07109   0.99956   0.45085   1.000
    C289    C    0.57099   0.00056   0.45095   1.000
    C290    C    0.08668   0.00125   0.18996   1.000
    C291    C    0.58727   0.00079   0.19004   1.000
    C292    C    0.06505   0.99437   0.88592   1.000
    C293    C    0.56660   0.00875   0.88627   1.000
    C294    C    0.04270   0.98187   0.14600   1.000
    C295    C    0.54411   0.02384   0.14674   1.000
    C296    C    0.32134   0.99859   0.54990   1.000
    C297    C    0.82111   0.00170   0.54892   1.000
    C298    C    0.33749   0.99715   0.81076   1.000
    C299    C    0.83698   0.00063   0.80973   1.000
    C300    C    0.31627   0.00406   0.11429   1.000
    C301    C    0.81629   0.99409   0.11328   1.000
    C302    C    0.29361   0.01725   0.85417   1.000
    C303    C    0.79295   0.98127   0.85317   1.000
    C304    C    0.12552   0.90100   0.59984   1.000
    C305    C    0.62783   0.90487   0.60371   1.000
    C306    C    0.00239   0.91124   0.59710   1.000
    C307    C    0.50489   0.90771   0.59828   1.000
    C308    C    0.13807   0.91106   0.74035   1.000
    C309    C    0.63793   0.91028   0.74500   1.000
    C310    C    0.01452   0.90450   0.73775   1.000
    C311    C    0.51489   0.90453   0.73950   1.000
    C312    C    0.12969   0.09242   0.60455   1.000
    C313    C    0.62730   0.09619   0.60060   1.000
    C314    C    0.00547   0.09254   0.59572   1.000
    C315    C    0.50286   0.08915   0.59670   1.000
    C316    C    0.13787   0.08950   0.74620   1.000
    C317    C    0.63949   0.08865   0.74138   1.000
    C318    C    0.01496   0.09581   0.73702   1.000
    C319    C    0.51531   0.09572   0.73732   1.000
    C320    C    0.37777   0.09582   0.40207   1.000
    C321    C    0.87758   0.09576   0.39294   1.000
    C322    C    0.25471   0.09248   0.40476   1.000
    C323    C    0.75387   0.08910   0.40160   1.000
    C324    C    0.38764   0.08939   0.26078   1.000
    C325    C    0.88978   0.08942   0.25202   1.000
    C326    C    0.26501   0.09596   0.26360   1.000
    C327    C    0.76699   0.09628   0.26113   1.000
    C328    C    0.37757   0.90422   0.39488   1.000
    C329    C    0.87781   0.90430   0.40189   1.000
    C330    C    0.25335   0.91122   0.40411   1.000
    C331    C    0.75470   0.90764   0.40463   1.000
    C332    C    0.38989   0.91056   0.25394   1.000
    C333    C    0.88774   0.91066   0.26063   1.000
    C334    C    0.26718   0.90363   0.26376   1.000
    C335    C    0.76504   0.90398   0.26357   1.000
    O336    O    0.98548   0.96292   0.02051   1.000
    O337    O    0.02979   0.97874   0.03295   1.000
    O338    O    0.01006   0.97307   0.96376   1.000
    O339    O    0.48543   0.03033   0.02073   1.000
    O340    O    0.53071   0.02249   0.03316   1.000
    O341    O    0.51049   0.02261   0.96409   1.000
    O342    O    0.08002   0.99622   0.04082   1.000
    O343    O    0.12536   0.01148   0.04240   1.000
    O344    O    0.10868   0.00734   0.97945   1.000
    O345    O    0.58205   0.01451   0.04102   1.000
    O346    O    0.62839   0.00822   0.04251   1.000
    O347    O    0.61129   0.00733   0.97962   1.000
    O348    O    0.04800   0.98429   0.10252   1.000
    O349    O    0.54943   0.02154   0.10297   1.000
    O350    O    0.86355   0.06470   0.07877   1.000
    O351    O    0.83239   0.01893   0.08804   1.000
    O352    O    0.84603   0.04287   0.01960   1.000
    O353    O    0.36212   0.93128   0.08024   1.000
    O354    O    0.33188   0.97841   0.08924   1.000
    O355    O    0.34511   0.95358   0.02094   1.000
    O356    O    0.79680   0.96780   0.09596   1.000
    O357    O    0.76500   0.92244   0.10069   1.000
    O358    O    0.77315   0.93922   0.03567   1.000
    O359    O    0.29730   0.03105   0.09684   1.000
    O360    O    0.26639   0.07772   0.10136   1.000
    O361    O    0.27429   0.06033   0.03642   1.000
    O362    O    0.82067   0.99696   0.17803   1.000
    O363    O    0.32067   0.00200   0.17889   1.000
    O364    O    0.06469   0.99156   0.16798   1.000
    O365    O    0.56569   0.01232   0.16839   1.000
    O366    O    0.08222   0.00019   0.23369   1.000
    O367    O    0.58274   0.00166   0.23377   1.000
    O368    O    0.67957   0.35025   0.23294   1.000
    O369    O    0.18068   0.35247   0.23470   1.000
    O370    O    0.18058   0.64926   0.23509   1.000
    O371    O    0.68127   0.64683   0.23516   1.000
    O372    O    0.72709   0.24915   0.23529   1.000
    O373    O    0.22799   0.75047   0.23807   1.000
    O374    O    0.22827   0.25156   0.23820   1.000
    O375    O    0.72882   0.74779   0.23856   1.000
    O376    O    0.98114   0.18858   0.24036   1.000
    O377    O    0.48107   0.81156   0.24196   1.000
    O378    O    0.03016   0.28764   0.24456   1.000
    O379    O    0.47911   0.18675   0.24554   1.000
    O380    O    0.97963   0.81372   0.24585   1.000
    O381    O    0.53006   0.71252   0.24567   1.000
    O382    O    0.52841   0.28555   0.24717   1.000
    O383    O    0.02892   0.71487   0.24752   1.000
    O384    O    0.85741   0.04463   0.24740   1.000
    O385    O    0.85639   0.95525   0.25171   1.000
    O386    O    0.79602   0.04806   0.25196   1.000
    O387    O    0.79504   0.95191   0.25318   1.000
    O388    O    0.35748   0.95525   0.24872   1.000
    O389    O    0.35636   0.04466   0.25214   1.000
    O390    O    0.29504   0.04795   0.25355   1.000
    O391    O    0.29613   0.95178   0.25363   1.000
    O392    O    0.89418   0.10574   0.28795   1.000
    O393    O    0.39427   0.89427   0.28988   1.000
    O394    O    0.69436   0.29139   0.25917   1.000
    O395    O    0.65670   0.33496   0.28977   1.000
    O396    O    0.70908   0.22637   0.29300   1.000
    O397    O    0.19526   0.29367   0.26132   1.000
    O398    O    0.15740   0.33727   0.29119   1.000
    O399    O    0.19508   0.70823   0.26143   1.000
    O400    O    0.15717   0.66473   0.29142   1.000
    O401    O    0.69575   0.70578   0.26163   1.000
    O402    O    0.65778   0.66233   0.29141   1.000
    O403    O    0.89269   0.89435   0.29632   1.000
    O404    O    0.39261   0.10572   0.29644   1.000
    O405    O    0.75622   0.10919   0.29560   1.000
    O406    O    0.20944   0.77340   0.29535   1.000
    O407    O    0.20969   0.22873   0.29554   1.000
    O408    O    0.71004   0.77089   0.29569   1.000
    O409    O    0.75513   0.88999   0.29822   1.000
    O410    O    0.25510   0.10997   0.29829   1.000
    O411    O    0.25624   0.89081   0.29813   1.000
    O412    O    0.99623   0.24727   0.26692   1.000
    O413    O    0.95773   0.20492   0.29622   1.000
    O414    O    0.49625   0.75288   0.26836   1.000
    O415    O    0.45787   0.79525   0.29800   1.000
    O416    O    0.01012   0.31347   0.29995   1.000
    O417    O    0.51025   0.68667   0.30118   1.000
    O418    O    0.49465   0.24572   0.27090   1.000
    O419    O    0.45644   0.20410   0.30181   1.000
    O420    O    0.99507   0.75465   0.27112   1.000
    O421    O    0.95676   0.79622   0.30189   1.000
    O422    O    0.50912   0.31223   0.30273   1.000
    O423    O    0.00939   0.68800   0.30279   1.000
    O424    O    0.05084   0.99820   0.29729   1.000
    O425    O    0.10275   0.00041   0.30159   1.000
    O426    O    0.55124   0.00355   0.29723   1.000
    O427    O    0.60311   0.00059   0.30183   1.000
    O428    O    0.50450   0.00527   0.29881   1.000
    O429    O    0.00410   0.99684   0.29912   1.000
    O430    O    0.14868   0.00264   0.31062   1.000
    O431    O    0.64899   0.99748   0.31116   1.000
    O432    O    0.65348   0.49867   0.31333   1.000
    O433    O    0.15349   0.50107   0.31411   1.000
    O434    O    0.61575   0.45993   0.31852   1.000
    O435    O    0.61594   0.53780   0.31866   1.000
    O436    O    0.11587   0.46205   0.31887   1.000
    O437    O    0.11579   0.53992   0.31908   1.000
    O438    O    0.52353   0.00400   0.36032   1.000
    O439    O    0.02331   0.99748   0.36053   1.000
    O440    O    0.61877   0.38171   0.32126   1.000
    O441    O    0.63331   0.31255   0.35347   1.000
    O442    O    0.57122   0.42128   0.32693   1.000
    O443    O    0.11913   0.38390   0.32189   1.000
    O444    O    0.07142   0.42291   0.32658   1.000
    O445    O    0.61933   0.61593   0.32199   1.000
    O446    O    0.57159   0.57705   0.32700   1.000
    O447    O    0.11889   0.61812   0.32218   1.000
    O448    O    0.07127   0.57868   0.32714   1.000
    O449    O    0.13364   0.31514   0.35475   1.000
    O450    O    0.63379   0.68477   0.35470   1.000
    O451    O    0.13319   0.68732   0.35462   1.000
    O452    O    0.91764   0.16012   0.32544   1.000
    O453    O    0.88808   0.10891   0.35841   1.000
    O454    O    0.12519   0.00144   0.36902   1.000
    O455    O    0.41782   0.83999   0.32739   1.000
    O456    O    0.38812   0.89110   0.36035   1.000
    O457    O    0.72609   0.15980   0.32807   1.000
    O458    O    0.68641   0.20486   0.35766   1.000
    O459    O    0.62533   0.99865   0.36939   1.000
    O460    O    0.93331   0.22817   0.35879   1.000
    O461    O    0.22603   0.84018   0.33039   1.000
    O462    O    0.18618   0.79510   0.35952   1.000
    O463    O    0.22612   0.16197   0.33079   1.000
    O464    O    0.18662   0.20748   0.35999   1.000
    O465    O    0.72625   0.83792   0.33075   1.000
    O466    O    0.68676   0.79244   0.35990   1.000
    O467    O    0.43373   0.77204   0.36080   1.000
    O468    O    0.74967   0.10559   0.36583   1.000
    O469    O    0.02385   0.38339   0.33154   1.000
    O470    O    0.98517   0.33734   0.36191   1.000
    O471    O    0.02691   0.46163   0.33444   1.000
    O472    O    0.91685   0.84015   0.33263   1.000
    O473    O    0.88773   0.89118   0.36695   1.000
    O474    O    0.41671   0.16001   0.33270   1.000
    O475    O    0.38767   0.10893   0.36708   1.000
    O476    O    0.02358   0.61771   0.33309   1.000
    O477    O    0.02684   0.53953   0.33480   1.000
    O478    O    0.52407   0.61669   0.33251   1.000
    O479    O    0.52705   0.53843   0.33518   1.000
    O480    O    0.52351   0.38236   0.33322   1.000
    O481    O    0.52688   0.46053   0.33525   1.000
    O482    O    0.24932   0.89460   0.36830   1.000
    O483    O    0.48559   0.66283   0.36337   1.000
    O484    O    0.74996   0.89182   0.36875   1.000
    O485    O    0.24995   0.10823   0.36887   1.000
    O486    O    0.93293   0.77171   0.36455   1.000
    O487    O    0.43286   0.22843   0.36475   1.000
    O488    O    0.98501   0.66288   0.36478   1.000
    O489    O    0.48501   0.33717   0.36499   1.000
    O490    O    0.98922   0.50049   0.33939   1.000
    O491    O    0.48935   0.49966   0.34036   1.000
    O492    O    0.64829   0.24747   0.38751   1.000
    O493    O    0.61446   0.28787   0.41018   1.000
    O494    O    0.14785   0.75252   0.38881   1.000
    O495    O    0.11383   0.71215   0.41092   1.000
    O496    O    0.64849   0.74977   0.38913   1.000
    O497    O    0.61450   0.70931   0.41116   1.000
    O498    O    0.14844   0.25029   0.38933   1.000
    O499    O    0.11453   0.29086   0.41145   1.000
    O500    O    0.66452   0.19006   0.41517   1.000
    O501    O    0.94686   0.29440   0.39145   1.000
    O502    O    0.91351   0.25291   0.41426   1.000
    O503    O    0.16378   0.80999   0.41668   1.000
    O504    O    0.66448   0.80717   0.41708   1.000
    O505    O    0.16452   0.19297   0.41742   1.000
    O506    O    0.96084   0.35375   0.41726   1.000
    O507    O    0.44745   0.70583   0.39334   1.000
    O508    O    0.41424   0.74733   0.41653   1.000
    O509    O    0.84756   0.04788   0.40647   1.000
    O510    O    0.46155   0.64648   0.41702   1.000
    O511    O    0.34754   0.95215   0.40778   1.000
    O512    O    0.94686   0.70501   0.39576   1.000
    O513    O    0.96119   0.64527   0.42023   1.000
    O514    O    0.91363   0.74586   0.41991   1.000
    O515    O    0.44694   0.29500   0.39609   1.000
    O516    O    0.46141   0.35463   0.42069   1.000
    O517    O    0.41376   0.25412   0.42034   1.000
    O518    O    0.78570   0.04455   0.41080   1.000
    O519    O    0.84767   0.95215   0.41094   1.000
    O520    O    0.34763   0.04795   0.41138   1.000
    O521    O    0.50242   0.00407   0.42047   1.000
    O522    O    0.54689   0.00199   0.42732   1.000
    O523    O    0.00240   0.99710   0.42082   1.000
    O524    O    0.04690   0.99863   0.42737   1.000
    O525    O    0.28543   0.95565   0.41240   1.000
    O526    O    0.78611   0.95382   0.41231   1.000
    O527    O    0.28610   0.04628   0.41272   1.000
    O528    O    0.09687   0.00038   0.43156   1.000
    O529    O    0.14163   0.00195   0.43205   1.000
    O530    O    0.59682   0.99960   0.43179   1.000
    O531    O    0.64157   0.99746   0.43250   1.000
    O532    O    0.81932   0.00085   0.48446   1.000
    O533    O    0.31942   0.99933   0.48529   1.000
    O534    O    0.06927   0.99965   0.51531   1.000
    O535    O    0.56915   0.00020   0.51544   1.000
    O536    O    0.89167   0.00408   0.56729   1.000
    O537    O    0.39194   0.99826   0.56409   1.000
    O538    O    0.84690   0.00250   0.56803   1.000
    O539    O    0.79692   0.00067   0.57251   1.000
    O540    O    0.34716   0.99842   0.56495   1.000
    O541    O    0.29719   0.99862   0.57359   1.000
    O542    O    0.71191   0.35382   0.57908   1.000
    O543    O    0.91586   0.19335   0.58173   1.000
    O544    O    0.21128   0.64427   0.58064   1.000
    O545    O    0.66456   0.25296   0.58027   1.000
    O546    O    0.16346   0.74460   0.58101   1.000
    O547    O    0.71010   0.64571   0.58204   1.000
    O548    O    0.21098   0.35284   0.58301   1.000
    O549    O    0.41525   0.80722   0.58461   1.000
    O550    O    0.91240   0.81011   0.58428   1.000
    O551    O    0.41319   0.19079   0.58450   1.000
    O552    O    0.66274   0.74652   0.58411   1.000
    O553    O    0.16396   0.25167   0.58480   1.000
    O554    O    0.75243   0.99925   0.57928   1.000
    O555    O    0.86559   0.29096   0.58732   1.000
    O556    O    0.25269   0.99856   0.58055   1.000
    O557    O    0.36501   0.70956   0.59001   1.000
    O558    O    0.86287   0.71171   0.58978   1.000
    O559    O    0.36355   0.28900   0.59064   1.000
    O560    O    0.03646   0.04614   0.58775   1.000
    O561    O    0.03492   0.95548   0.58844   1.000
    O562    O    0.09648   0.95037   0.58981   1.000
    O563    O    0.09857   0.04608   0.59216   1.000
    O564    O    0.53508   0.04449   0.58832   1.000
    O565    O    0.53610   0.95378   0.58911   1.000
    O566    O    0.59730   0.04801   0.59027   1.000
    O567    O    0.59756   0.95236   0.59182   1.000
    O568    O    0.37563   0.99787   0.62725   1.000
    O569    O    0.87526   0.00326   0.63040   1.000
    O570    O    0.00050   0.10817   0.63171   1.000
    O571    O    0.77337   0.99903   0.63945   1.000
    O572    O    0.49859   0.10562   0.63251   1.000
    O573    O    0.99797   0.89480   0.63284   1.000
    O574    O    0.27374   0.99883   0.64064   1.000
    O575    O    0.49998   0.89220   0.63433   1.000
    O576    O    0.13611   0.88880   0.63462   1.000
    O577    O    0.63783   0.10896   0.63524   1.000
    O578    O    0.63775   0.89150   0.63848   1.000
    O579    O    0.69762   0.29426   0.60412   1.000
    O580    O    0.73552   0.33698   0.63484   1.000
    O581    O    0.68365   0.22787   0.63602   1.000
    O582    O    0.13920   0.10635   0.63938   1.000
    O583    O    0.19664   0.70381   0.60528   1.000
    O584    O    0.18229   0.77027   0.63672   1.000
    O585    O    0.23469   0.66169   0.63641   1.000
    O586    O    0.69602   0.70527   0.60733   1.000
    O587    O    0.73425   0.66267   0.63728   1.000
    O588    O    0.19705   0.29317   0.60821   1.000
    O589    O    0.23505   0.33613   0.63840   1.000
    O590    O    0.68242   0.77176   0.63938   1.000
    O591    O    0.89930   0.25034   0.60991   1.000
    O592    O    0.93714   0.20739   0.63984   1.000
    O593    O    0.18355   0.22659   0.64020   1.000
    O594    O    0.89666   0.75238   0.61195   1.000
    O595    O    0.93474   0.79521   0.64135   1.000
    O596    O    0.39744   0.24837   0.61250   1.000
    O597    O    0.43562   0.20551   0.64150   1.000
    O598    O    0.39865   0.75022   0.61274   1.000
    O599    O    0.43648   0.79322   0.64275   1.000
    O600    O    0.88395   0.31491   0.64455   1.000
    O601    O    0.88227   0.68697   0.64595   1.000
    O602    O    0.38327   0.68562   0.64735   1.000
    O603    O    0.38300   0.31359   0.64689   1.000
    O604    O    0.73887   0.49973   0.65988   1.000
    O605    O    0.23886   0.49917   0.66155   1.000
    O606    O    0.77664   0.46105   0.66454   1.000
    O607    O    0.77637   0.53892   0.66503   1.000
    O608    O    0.27642   0.53827   0.66647   1.000
    O609    O    0.27654   0.46036   0.66670   1.000
    O610    O    0.77373   0.38284   0.66639   1.000
    O611    O    0.75965   0.31273   0.69722   1.000
    O612    O    0.82120   0.42240   0.67240   1.000
    O613    O    0.27309   0.61645   0.66829   1.000
    O614    O    0.25854   0.68656   0.69879   1.000
    O615    O    0.66750   0.15973   0.66879   1.000
    O616    O    0.70722   0.20427   0.69905   1.000
    O617    O    0.97632   0.16171   0.66970   1.000
    O618    O    0.00524   0.10981   0.70236   1.000
    O619    O    0.77300   0.61712   0.66788   1.000
    O620    O    0.75902   0.68712   0.69908   1.000
    O621    O    0.82069   0.57811   0.67318   1.000
    O622    O    0.16589   0.83864   0.66881   1.000
    O623    O    0.20559   0.79450   0.69974   1.000
    O624    O    0.47525   0.16008   0.67046   1.000
    O625    O    0.50482   0.10890   0.70282   1.000
    O626    O    0.97439   0.84047   0.67059   1.000
    O627    O    0.00403   0.89144   0.70316   1.000
    O628    O    0.27352   0.38209   0.66929   1.000
    O629    O    0.25975   0.31188   0.70031   1.000
    O630    O    0.32077   0.57743   0.67463   1.000
    O631    O    0.14238   0.89383   0.70488   1.000
    O632    O    0.32104   0.42164   0.67477   1.000
    O633    O    0.64392   0.10519   0.70563   1.000
    O634    O    0.47577   0.83885   0.67249   1.000
    O635    O    0.50497   0.89062   0.70494   1.000
    O636    O    0.66673   0.84007   0.67208   1.000
    O637    O    0.70668   0.79561   0.70182   1.000
    O638    O    0.95924   0.22813   0.70508   1.000
    O639    O    0.16780   0.15833   0.67299   1.000
    O640    O    0.20772   0.20295   0.70276   1.000
    O641    O    0.45904   0.22705   0.70553   1.000
    O642    O    0.95804   0.77351   0.70543   1.000
    O643    O    0.64280   0.89420   0.70913   1.000
    O644    O    0.89877   0.00417   0.68868   1.000
    O645    O    0.85285   0.00162   0.69793   1.000
    O646    O    0.14329   0.10489   0.71020   1.000
    O647    O    0.39926   0.99700   0.68939   1.000
    O648    O    0.35333   0.99803   0.69886   1.000
    O649    O    0.45848   0.77257   0.70806   1.000
    O650    O    0.86893   0.38343   0.67755   1.000
    O651    O    0.90684   0.33661   0.70883   1.000
    O652    O    0.86552   0.46160   0.68081   1.000
    O653    O    0.86819   0.61766   0.67823   1.000
    O654    O    0.90628   0.66440   0.70908   1.000
    O655    O    0.86528   0.53944   0.68109   1.000
    O656    O    0.36873   0.38259   0.67958   1.000
    O657    O    0.40711   0.33599   0.70996   1.000
    O658    O    0.36542   0.46080   0.68294   1.000
    O659    O    0.36835   0.61691   0.68015   1.000
    O660    O    0.40603   0.66401   0.71172   1.000
    O661    O    0.36527   0.53869   0.68303   1.000
    O662    O    0.75417   0.99780   0.70087   1.000
    O663    O    0.80095   0.99922   0.70250   1.000
    O664    O    0.90305   0.50076   0.68603   1.000
    O665    O    0.25463   0.99881   0.70214   1.000
    O666    O    0.30142   0.99880   0.70362   1.000
    O667    O    0.40297   0.49992   0.68817   1.000
    O668    O    0.83243   0.00033   0.76597   1.000
    O669    O    0.33294   0.99787   0.76699   1.000
    O670    O    0.74532   0.24641   0.72954   1.000
    O671    O    0.77893   0.28668   0.75296   1.000
    O672    O    0.24379   0.75292   0.73068   1.000
    O673    O    0.27754   0.71316   0.75450   1.000
    O674    O    0.74506   0.75357   0.73156   1.000
    O675    O    0.77894   0.71343   0.75424   1.000
    O676    O    0.72968   0.18775   0.75554   1.000
    O677    O    0.22780   0.81157   0.75627   1.000
    O678    O    0.24592   0.24529   0.73267   1.000
    O679    O    0.27964   0.28568   0.75550   1.000
    O680    O    0.72999   0.81262   0.75748   1.000
    O681    O    0.23101   0.18614   0.75850   1.000
    O682    O    0.04455   0.04779   0.74699   1.000
    O683    O    0.54506   0.04801   0.74728   1.000
    O684    O    0.04433   0.95214   0.74736   1.000
    O685    O    0.94396   0.70812   0.73916   1.000
    O686    O    0.97673   0.75054   0.76252   1.000
    O687    O    0.44497   0.29230   0.73961   1.000
    O688    O    0.47785   0.24991   0.76264   1.000
    O689    O    0.94429   0.29279   0.73942   1.000
    O690    O    0.97684   0.25026   0.76323   1.000
    O691    O    0.54485   0.95242   0.74837   1.000
    O692    O    0.92971   0.64891   0.76531   1.000
    O693    O    0.10611   0.95542   0.74866   1.000
    O694    O    0.92932   0.35144   0.76604   1.000
    O695    O    0.43069   0.35136   0.76608   1.000
    O696    O    0.60715   0.04448   0.74931   1.000
    O697    O    0.44341   0.70796   0.74241   1.000
    O698    O    0.47594   0.75050   0.76630   1.000
    O699    O    0.42840   0.64933   0.76902   1.000
    O700    O    0.60637   0.95529   0.75112   1.000
    O701    O    0.10601   0.04464   0.75158   1.000
    O702    O    0.06960   0.99707   0.82144   1.000
    O703    O    0.57071   0.00453   0.82176   1.000
    O704    O    0.81497   0.99095   0.83145   1.000
    O705    O    0.31555   0.00720   0.83246   1.000
    O706    O    0.79805   0.98417   0.89677   1.000
    O707    O    0.29855   0.01409   0.89773   1.000
    O708    O    0.99632   0.96919   0.89890   1.000
    O709    O    0.49631   0.02158   0.89938   1.000
    O710    O    0.03944   0.98486   0.90329   1.000
    O711    O    0.08783   0.00166   0.91111   1.000
    O712    O    0.54045   0.01411   0.90366   1.000
    O713    O    0.58991   0.00680   0.91133   1.000
    O714    O    0.13072   0.01623   0.92032   1.000
    O715    O    0.63380   0.00126   0.92049   1.000
    O716    O    0.85674   0.06223   0.95660   1.000
    O717    O    0.35552   0.93350   0.95803   1.000
    O718    O    0.82337   0.01452   0.95838   1.000
    O719    O    0.78607   0.96200   0.96653   1.000
    O720    O    0.32312   0.98267   0.95949   1.000
    O721    O    0.28687   0.03677   0.96738   1.000
    O722    O    0.75306   0.91563   0.97932   1.000
    O723    O    0.25478   0.08456   0.97994   1.000
    O724    O    0.07079   0.99975   0.66837   1.000
    O725    O    0.57106   0.00008   0.66859   1.000
    O726    O    0.32129   0.00000   0.33209   1.000
    O727    O    0.82129   0.99992   0.33139   1.000
loop_
    _geom_bond_atom_site_label_1
    _geom_bond_atom_site_label_2
    _geom_bond_distance
    _geom_bond_site_symmetry_2
    _ccdc_geom_bond_type
    C188   O336      0.54485  1_455   S
    C49    O336      0.54485      .   S
    C188   O337      0.69970      .   S
    C176   O337      0.69970      .   S
    C188   O338      0.69579  1_554   S
    C190   O338      0.69579      .   S
    C189   O339      0.54456      .   S
    C48    O339      0.54456      .   S
    C189   O340      0.69960      .   S
    C177   O340      0.69960      .   S
    C189   O341      0.69550  1_554   S
    C191   O341      0.69550      .   S
    C194   O342      0.70257  1_545   S
    C176   O342      0.70257      .   S
    C194   O343      0.54433      .   S
    C54    O343      0.54433      .   S
    C194   O344      0.69196  1_554   S
    C192   O344      0.69196      .   S
    C195   O345      0.70215      .   S
    C177   O345      0.70215      .   S
    C195   O346      0.54408      .   S
    C55    O346      0.54408      .   S
    C195   O347      0.69378  1_554   S
    C193   O347      0.69378      .   S
    C176   O348      0.70707      .   S
    C294   O348      0.70707      .   S
    C177   O349      0.71162      .   S
    C295   O349      0.71162      .   S
    C281   O350      0.54575      .   S
    C105   O350      0.54575      .   S
    C281   O351      0.67606      .   S
    C301   O351      0.67606  1_565   S
    C281   O352      0.69347      .   S
    C283   O352      0.69347  1_556   S
    C280   O353      0.54536      .   S
    C104   O353      0.54536      .   S
    C280   O354      0.67565      .   S
    C300   O354      0.67565  1_545   S
    C280   O355      0.69411      .   S
    C282   O355      0.69411  1_556   S
    C279   O356      0.67488      .   S
    C301   O356      0.67488      .   S
    C279   O357      0.54526      .   S
    C103   O357      0.54526      .   S
    C279   O358      0.69499      .   S
    C277   O358      0.69499  1_556   S
    C278   O359      0.67478      .   S
    C300   O359      0.67478      .   S
    C278   O360      0.54527      .   S
    C102   O360      0.54527      .   S
    C278   O361      0.69450      .   S
    C276   O361      0.69450  1_556   S
    C301   O362      1.04174      .   S
    C7     O362      1.04174      .   S
    C300   O363      1.03896      .   S
    C6     O363      1.03896  1_565   S
    C294   O364      0.63968      .   S
    C290   O364      0.63968  1_545   S
    C295   O365      0.63692      .   S
    C291   O365      0.63692      .   S
    C290   O366      0.70700      .   S
    C184   O366      0.70700  1_565   S
    C291   O367      0.70724      .   S
    C185   O367      0.70724      .   S
    C67    O368      0.54554      .   S
    C223   O368      0.54554      .   S
    C66    O369      0.54552      .   S
    C222   O369      0.54552      .   S
    C82    O370      0.54551      .   S
    C254   O370      0.54551      .   S
    C83    O371      0.54567      .   S
    C255   O371      0.54567      .   S
    C69    O372      0.54471      .   S
    C225   O372      0.54471      .   S
    C84    O373      0.54470      .   S
    C256   O373      0.54470      .   S
    C68    O374      0.54483      .   S
    C224   O374      0.54483      .   S
    C85    O375      0.54479      .   S
    C257   O375      0.54479      .   S
    C65    O376      0.54487      .   S
    C221   O376      0.54487      .   S
    C80    O377      0.54480      .   S
    C252   O377      0.54480      .   S
    C62    O378      0.54493      .   S
    C218   O378      0.54493      .   S
    C64    O379      0.54487      .   S
    C220   O379      0.54487      .   S
    C81    O380      0.54489      .   S
    C253   O380      0.54489      .   S
    C79    O381      0.54492      .   S
    C251   O381      0.54492      .   S
    C63    O382      0.54492      .   S
    C219   O382      0.54492      .   S
    C78    O383      0.54491      .   S
    C250   O383      0.54491      .   S
    C7     O384      1.03652  1_565   S
    C325   O384      1.03652      .   S
    C7     O385      1.02466      .   S
    C333   O385      1.02466      .   S
    C7     O386      1.02904  1_565   S
    C327   O386      1.02904      .   S
    C7     O387      1.04353      .   S
    C335   O387      1.04353      .   S
    C6     O388      1.03690      .   S
    C332   O388      1.03690      .   S
    C6     O389      1.02438  1_565   S
    C324   O389      1.02438      .   S
    C6     O390      1.04417  1_565   S
    C326   O390      1.04417      .   S
    C6     O391      1.02920      .   S
    C334   O391      1.02920      .   S
    C325   O392      0.63825      .   S
    C207   O392      0.63825      .   S
    C332   O393      0.63838      .   S
    C238   O393      0.63838      .   S
    C223   O394      0.69647      .   S
    C225   O394      0.69647      .   S
    C223   O395      0.70278      .   S
    C211   O395      0.70278      .   S
    C225   O396      0.70082      .   S
    C201   O396      0.70082      .   S
    C222   O397      0.69625      .   S
    C224   O397      0.69625      .   S
    C222   O398      0.70255      .   S
    C210   O398      0.70255      .   S
    C254   O399      0.69634      .   S
    C256   O399      0.69634      .   S
    C254   O400      0.70280      .   S
    C242   O400      0.70280      .   S
    C255   O401      0.69623      .   S
    C257   O401      0.69623      .   S
    C255   O402      0.70263      .   S
    C243   O402      0.70263      .   S
    C333   O403      0.63706      .   S
    C239   O403      0.63706      .   S
    C324   O404      0.63670      .   S
    C206   O404      0.63670      .   S
    C327   O405      0.63861      .   S
    C203   O405      0.63861      .   S
    C256   O406      0.70078      .   S
    C232   O406      0.70078      .   S
    C224   O407      0.70037      .   S
    C200   O407      0.70037      .   S
    C257   O408      0.70071      .   S
    C233   O408      0.70071      .   S
    C335   O409      0.63940      .   S
    C235   O409      0.63940      .   S
    C326   O410      0.64012      .   S
    C202   O410      0.64012      .   S
    C334   O411      0.63850      .   S
    C234   O411      0.63850      .   S
    C221   O412      0.69528      .   S
    C218   O412      0.69528  1_455   S
    C221   O413      0.70134      .   S
    C205   O413      0.70134      .   S
    C252   O414      0.69511      .   S
    C251   O414      0.69511      .   S
    C252   O415      0.70143      .   S
    C236   O415      0.70143      .   S
    C218   O416      0.70373      .   S
    C208   O416      0.70373      .   S
    C251   O417      0.70334      .   S
    C241   O417      0.70334      .   S
    C220   O418      0.69502      .   S
    C219   O418      0.69502      .   S
    C220   O419      0.70157      .   S
    C204   O419      0.70157      .   S
    C253   O420      0.69523      .   S
    C250   O420      0.69523  1_455   S
    C253   O421      0.70163      .   S
    C237   O421      0.70163      .   S
    C219   O422      0.70355      .   S
    C209   O422      0.70355      .   S
    C250   O423      0.70359      .   S
    C240   O423      0.70359      .   S
    C184   O424      0.70205      .   S
    C186   O424      0.70205      .   S
    C184   O425      0.69902  1_565   S
    C178   O425      0.69902      .   S
    C185   O426      0.70196      .   S
    C187   O426      0.70196      .   S
    C185   O427      0.69898      .   S
    C179   O427      0.69898  1_565   S
    C46    O428      0.54434      .   S
    C187   O428      0.54434      .   S
    C47    O429      0.54458  1_655   S
    C186   O429      0.54458      .   S
    C40    O430      0.54383      .   S
    C178   O430      0.54383      .   S
    C41    O431      0.54378      .   S
    C179   O431      0.54378      .   S
    C109   O432      0.54557      .   S
    C285   O432      0.54557      .   S
    C108   O433      0.54554      .   S
    C284   O433      0.54554      .   S
    C285   O434      0.70074      .   S
    C213   O434      0.70074      .   S
    C285   O435      0.70075      .   S
    C245   O435      0.70075      .   S
    C284   O436      0.70066      .   S
    C212   O436      0.70066      .   S
    C284   O437      0.70083      .   S
    C244   O437      0.70083      .   S
    C187   O438      0.69371      .   S
    C181   O438      0.69371      .   S
    C186   O439      0.69351      .   S
    C180   O439      0.69351      .   S
    C211   O440      0.74185      .   S
    C213   O440      0.74185      .   S
    C211   O441      0.70280      .   S
    C231   O441      0.70280      .   S
    C213   O442      0.70794      .   S
    C215   O442      0.70794      .   S
    C212   O443      0.74116      .   S
    C210   O443      0.74116      .   S
    C212   O444      0.70788      .   S
    C214   O444      0.70788      .   S
    C245   O445      0.74098      .   S
    C243   O445      0.74098      .   S
    C245   O446      0.70797      .   S
    C247   O446      0.70797      .   S
    C244   O447      0.74167      .   S
    C242   O447      0.74167      .   S
    C244   O448      0.70789      .   S
    C246   O448      0.70789      .   S
    C210   O449      0.70302      .   S
    C230   O449      0.70302      .   S
    C243   O450      0.70298      .   S
    C263   O450      0.70298      .   S
    C242   O451      0.70305      .   S
    C262   O451      0.70305      .   S
    C207   O452      0.74823      .   S
    C205   O452      0.74823      .   S
    C207   O453      0.63832      .   S
    C321   O453      0.63832      .   S
    C178   O454      0.69424      .   S
    C182   O454      0.69424      .   S
    C238   O455      0.74854      .   S
    C236   O455      0.74854      .   S
    C238   O456      0.63848      .   S
    C328   O456      0.63848      .   S
    C201   O457      0.74825      .   S
    C203   O457      0.74825      .   S
    C201   O458      0.70090      .   S
    C229   O458      0.70090      .   S
    C179   O459      0.69418      .   S
    C183   O459      0.69418      .   S
    C205   O460      0.69970      .   S
    C217   O460      0.69970      .   S
    C232   O461      0.74810      .   S
    C234   O461      0.74810      .   S
    C232   O462      0.70095      .   S
    C260   O462      0.70095      .   S
    C200   O463      0.74764      .   S
    C202   O463      0.74764      .   S
    C200   O464      0.70103      .   S
    C228   O464      0.70103      .   S
    C233   O465      0.74744      .   S
    C235   O465      0.74744      .   S
    C233   O466      0.70068      .   S
    C261   O466      0.70068      .   S
    C236   O467      0.69979      .   S
    C248   O467      0.69979      .   S
    C203   O468      0.63644      .   S
    C323   O468      0.63644      .   S
    C208   O469      0.74149      .   S
    C214   O469      0.74149      .   S
    C208   O470      0.70265  1_455   S
    C227   O470      0.70265      .   S
    C214   O471      0.70058      .   S
    C286   O471      0.70058      .   S
    C239   O472      0.74761      .   S
    C237   O472      0.74761      .   S
    C239   O473      0.63888      .   S
    C329   O473      0.63888      .   S
    C206   O474      0.74751      .   S
    C204   O474      0.74751      .   S
    C206   O475      0.63939      .   S
    C320   O475      0.63939      .   S
    C246   O476      0.74111      .   S
    C240   O476      0.74111      .   S
    C246   O477      0.70087      .   S
    C286   O477      0.70087      .   S
    C247   O478      0.74171      .   S
    C241   O478      0.74171      .   S
    C247   O479      0.70058      .   S
    C287   O479      0.70058      .   S
    C215   O480      0.74099      .   S
    C209   O480      0.74099      .   S
    C215   O481      0.70087      .   S
    C287   O481      0.70087      .   S
    C234   O482      0.63701      .   S
    C330   O482      0.63701      .   S
    C241   O483      0.70286      .   S
    C258   O483      0.70286      .   S
    C235   O484      0.63572      .   S
    C331   O484      0.63572      .   S
    C202   O485      0.63559      .   S
    C322   O485      0.63559      .   S
    C237   O486      0.69945      .   S
    C249   O486      0.69945      .   S
    C204   O487      0.69947      .   S
    C216   O487      0.69947      .   S
    C240   O488      0.70251  1_455   S
    C259   O488      0.70251      .   S
    C209   O489      0.70216      .   S
    C226   O489      0.70216      .   S
    C286   O490      0.54562  1_455   S
    C111   O490      0.54562      .   S
    C287   O491      0.54537      .   S
    C110   O491      0.54537      .   S
    C231   O492      0.69526      .   S
    C229   O492      0.69526      .   S
    C231   O493      0.54540      .   S
    C75    O493      0.54540      .   S
    C262   O494      0.69527      .   S
    C260   O494      0.69527      .   S
    C262   O495      0.54513      .   S
    C90    O495      0.54513      .   S
    C263   O496      0.69488      .   S
    C261   O496      0.69488      .   S
    C263   O497      0.54505      .   S
    C91    O497      0.54505      .   S
    C230   O498      0.69501      .   S
    C228   O498      0.69501      .   S
    C230   O499      0.54514      .   S
    C74    O499      0.54514      .   S
    C229   O500      0.54399      .   S
    C73    O500      0.54399      .   S
    C217   O501      0.69588      .   S
    C227   O501      0.69588      .   S
    C217   O502      0.54339      .   S
    C61    O502      0.54339      .   S
    C260   O503      0.54444      .   S
    C88    O503      0.54444      .   S
    C261   O504      0.54389      .   S
    C89    O504      0.54389      .   S
    C228   O505      0.54437      .   S
    C72    O505      0.54437      .   S
    C227   O506      0.54546      .   S
    C71    O506      0.54546      .   S
    C248   O507      0.69606      .   S
    C258   O507      0.69606      .   S
    C248   O508      0.54343      .   S
    C76    O508      0.54343      .   S
    C321   O509      1.05250      .   S
    C5     O509      1.05250      .   S
    C258   O510      0.52257      .   S
    C86    O510      0.52257      .   S
    C328   O511      1.05119      .   S
    C4     O511      1.05119  1_545   S
    C259   O512      0.69572      .   S
    C249   O512      0.69572      .   S
    C259   O513      0.54548      .   S
    C87    O513      0.54548      .   S
    C249   O514      0.54310      .   S
    C77    O514      0.54310      .   S
    C226   O515      0.69570      .   S
    C216   O515      0.69570      .   S
    C226   O516      0.54566      .   S
    C70    O516      0.54566      .   S
    C216   O517      0.54311      .   S
    C60    O517      0.54311      .   S
    C323   O518      1.03283      .   S
    C5     O518      1.03283      .   S
    C329   O519      1.04172      .   S
    C5     O519      1.04172  1_545   S
    C320   O520      1.04232      .   S
    C4     O520      1.04232      .   S
    C181   O521      0.54407      .   S
    C42    O521      0.54407      .   S
    C181   O522      0.67717      .   S
    C289   O522      0.67717      .   S
    C180   O523      0.54422      .   S
    C43    O523      0.54422  1_655   S
    C180   O524      0.67720      .   S
    C288   O524      0.67720      .   S
    C330   O525      1.03360      .   S
    C4     O525      1.03360  1_545   S
    C331   O526      1.04059      .   S
    C5     O526      1.04059  1_545   S
    C322   O527      1.04123      .   S
    C4     O527      1.04123      .   S
    C182   O528      0.67403      .   S
    C288   O528      0.67403  1_565   S
    C182   O529      0.54378      .   S
    C44    O529      0.54378      .   S
    C183   O530      0.67416      .   S
    C289   O530      0.67416  1_545   S
    C183   O531      0.54371      .   S
    C45    O531      0.54371      .   S
    C5     O532      1.03190      .   S
    C297   O532      1.03190      .   S
    C4     O533      1.03433  1_545   S
    C296   O533      1.03433      .   S
    C288   O534      1.03180      .   S
    C0     O534      1.03180      .   S
    C289   O535      1.03232      .   S
    C1     O535      1.03232  1_565   S
    C97    O536      0.54368      .   S
    C271   O536      0.54368      .   S
    C96    O537      0.50895      .   S
    C270   O537      0.50895      .   S
    C297   O538      0.67377      .   S
    C271   O538      0.67377      .   S
    C297   O539      0.67722      .   S
    C269   O539      0.67722  1_565   S
    C296   O540      0.64740      .   S
    C270   O540      0.64740      .   S
    C296   O541      0.67723      .   S
    C268   O541      0.67723      .   S
    C35    O542      0.54547      .   S
    C171   O542      0.54547      .   S
    C37    O543      0.54431      .   S
    C173   O543      0.54431      .   S
    C18    O544      0.54545      .   S
    C138   O544      0.54545      .   S
    C25    O545      0.54338      .   S
    C161   O545      0.54338      .   S
    C8     O546      0.54335      .   S
    C128   O546      0.54335      .   S
    C19    O547      0.54548      .   S
    C139   O547      0.54548      .   S
    C34    O548      0.54546      .   S
    C170   O548      0.54546      .   S
    C20    O549      0.54434      .   S
    C140   O549      0.54434      .   S
    C21    O550      0.54424      .   S
    C141   O550      0.54424      .   S
    C36    O551      0.54445      .   S
    C172   O551      0.54445      .   S
    C9     O552      0.54332      .   S
    C129   O552      0.54332      .   S
    C24    O553      0.54336      .   S
    C160   O553      0.54336      .   S
    C95    O554      0.54403      .   S
    C269   O554      0.54403      .   S
    C39    O555      0.54516      .   S
    C175   O555      0.54516      .   S
    C94    O556      0.54406      .   S
    C268   O556      0.54406      .   S
    C22    O557      0.54518      .   S
    C142   O557      0.54518      .   S
    C23    O558      0.54477      .   S
    C143   O558      0.54477      .   S
    C38    O559      0.54509      .   S
    C174   O559      0.54509      .   S
    C0     O560      1.03649  1_565   S
    C314   O560      1.03649      .   S
    C0     O561      1.03969      .   S
    C306   O561      1.03969      .   S
    C0     O562      1.04506      .   S
    C304   O562      1.04506      .   S
    C0     O563      1.04931  1_565   S
    C312   O563      1.04931      .   S
    C1     O564      1.03839  1_565   S
    C315   O564      1.03839      .   S
    C1     O565      1.03873      .   S
    C307   O565      1.03873      .   S
    C1     O566      1.04640  1_565   S
    C313   O566      1.04640      .   S
    C1     O567      1.04711      .   S
    C305   O567      1.04711      .   S
    C270   O568      0.75822      .   S
    C266   O568      0.75822      .   S
    C271   O569      0.69444      .   S
    C267   O569      0.69444      .   S
    C314   O570      0.63690      .   S
    C147   O570      0.63690  1_655   S
    C269   O571      0.69355      .   S
    C275   O571      0.69355      .   S
    C315   O572      0.63677      .   S
    C146   O572      0.63677      .   S
    C306   O573      0.63620  1_455   S
    C115   O573      0.63620      .   S
    C268   O574      0.69368      .   S
    C274   O574      0.69368      .   S
    C307   O575      0.63678      .   S
    C114   O575      0.63678      .   S
    C304   O576      0.63861      .   S
    C118   O576      0.63861      .   S
    C313   O577      0.63879      .   S
    C151   O577      0.63879      .   S
    C305   O578      0.63856      .   S
    C119   O578      0.63856      .   S
    C171   O579      0.69586      .   S
    C161   O579      0.69586      .   S
    C171   O580      0.70230      .   S
    C153   O580      0.70230      .   S
    C161   O581      0.69942      .   S
    C149   O581      0.69942      .   S
    C312   O582      0.63880      .   S
    C150   O582      0.63880      .   S
    C128   O583      0.69583      .   S
    C138   O583      0.69583      .   S
    C128   O584      0.69949      .   S
    C116   O584      0.69949      .   S
    C138   O585      0.70242      .   S
    C120   O585      0.70242      .   S
    C139   O586      0.69578      .   S
    C129   O586      0.69578      .   S
    C139   O587      0.70237      .   S
    C121   O587      0.70237      .   S
    C170   O588      0.69596      .   S
    C160   O588      0.69596      .   S
    C170   O589      0.70244      .   S
    C152   O589      0.70244      .   S
    C129   O590      0.69953      .   S
    C117   O590      0.69953      .   S
    C173   O591      0.69516      .   S
    C175   O591      0.69516      .   S
    C173   O592      0.70089      .   S
    C145   O592      0.70089      .   S
    C160   O593      0.69959      .   S
    C148   O593      0.69959      .   S
    C141   O594      0.69511      .   S
    C143   O594      0.69511      .   S
    C141   O595      0.70095      .   S
    C113   O595      0.70095      .   S
    C172   O596      0.69511      .   S
    C174   O596      0.69511      .   S
    C172   O597      0.70038      .   S
    C144   O597      0.70038      .   S
    C140   O598      0.69528      .   S
    C142   O598      0.69528      .   S
    C140   O599      0.70102      .   S
    C112   O599      0.70102      .   S
    C175   O600      0.70242      .   S
    C155   O600      0.70242      .   S
    C143   O601      0.70303      .   S
    C123   O601      0.70303      .   S
    C142   O602      0.70306      .   S
    C122   O602      0.70306      .   S
    C174   O603      0.70305      .   S
    C154   O603      0.70305      .   S
    C59    O604      0.54537      .   S
    C199   O604      0.54537      .   S
    C58    O605      0.54539      .   S
    C198   O605      0.54539      .   S
    C199   O606      0.70062      .   S
    C159   O606      0.70062      .   S
    C199   O607      0.70058      .   S
    C127   O607      0.70058      .   S
    C198   O608      0.70086      .   S
    C126   O608      0.70086      .   S
    C198   O609      0.70063      .   S
    C158   O609      0.70063      .   S
    C153   O610      0.74116      .   S
    C159   O610      0.74116      .   S
    C153   O611      0.70357      .   S
    C163   O611      0.70357      .   S
    C159   O612      0.70789      .   S
    C157   O612      0.70789      .   S
    C120   O613      0.74130      .   S
    C126   O613      0.74130      .   S
    C120   O614      0.70358      .   S
    C130   O614      0.70358      .   S
    C149   O615      0.74808      .   S
    C151   O615      0.74808      .   S
    C149   O616      0.70143      .   S
    C165   O616      0.70143      .   S
    C147   O617      0.74833      .   S
    C145   O617      0.74833      .   S
    C147   O618      0.63855  1_655   S
    C318   O618      0.63855      .   S
    C121   O619      0.74114      .   S
    C127   O619      0.74114      .   S
    C121   O620      0.70367      .   S
    C131   O620      0.70367      .   S
    C127   O621      0.70792      .   S
    C125   O621      0.70792      .   S
    C116   O622      0.74826      .   S
    C118   O622      0.74826      .   S
    C116   O623      0.70142      .   S
    C132   O623      0.70142      .   S
    C146   O624      0.74778      .   S
    C144   O624      0.74778      .   S
    C146   O625      0.63872      .   S
    C319   O625      0.63872      .   S
    C115   O626      0.74763      .   S
    C113   O626      0.74763      .   S
    C115   O627      0.63915  1_655   S
    C310   O627      0.63915      .   S
    C152   O628      0.74159      .   S
    C158   O628      0.74159      .   S
    C152   O629      0.70379      .   S
    C162   O629      0.70379      .   S
    C126   O630      0.70796      .   S
    C124   O630      0.70796      .   S
    C118   O631      0.63714      .   S
    C308   O631      0.63714      .   S
    C158   O632      0.70808      .   S
    C156   O632      0.70808      .   S
    C151   O633      0.63710      .   S
    C317   O633      0.63710      .   S
    C114   O634      0.74890      .   S
    C112   O634      0.74890      .   S
    C114   O635      0.63830      .   S
    C311   O635      0.63830      .   S
    C117   O636      0.74770      .   S
    C119   O636      0.74770      .   S
    C117   O637      0.70142      .   S
    C133   O637      0.70142      .   S
    C145   O638      0.70066      .   S
    C169   O638      0.70066      .   S
    C148   O639      0.74808      .   S
    C150   O639      0.74808      .   S
    C148   O640      0.70145      .   S
    C164   O640      0.70145      .   S
    C144   O641      0.70126      .   S
    C168   O641      0.70126      .   S
    C113   O642      0.70076      .   S
    C137   O642      0.70076      .   S
    C119   O643      0.63743      .   S
    C309   O643      0.63743      .   S
    C267   O644      0.54375      .   S
    C93    O644      0.54375      .   S
    C267   O645      0.69868      .   S
    C273   O645      0.69868      .   S
    C150   O646      0.63749      .   S
    C316   O646      0.63749      .   S
    C266   O647      0.54361      .   S
    C92    O647      0.54361      .   S
    C266   O648      0.69860      .   S
    C272   O648      0.69860      .   S
    C112   O649      0.70072      .   S
    C136   O649      0.70072      .   S
    C155   O650      0.74152      .   S
    C157   O650      0.74152      .   S
    C155   O651      0.70318      .   S
    C167   O651      0.70318      .   S
    C157   O652      0.70064      .   S
    C197   O652      0.70064      .   S
    C123   O653      0.74122      .   S
    C125   O653      0.74122      .   S
    C123   O654      0.70301      .   S
    C135   O654      0.70301      .   S
    C125   O655      0.70073      .   S
    C197   O655      0.70073      .   S
    C154   O656      0.74138      .   S
    C156   O656      0.74138      .   S
    C154   O657      0.70271      .   S
    C166   O657      0.70271      .   S
    C156   O658      0.70086      .   S
    C196   O658      0.70086      .   S
    C122   O659      0.74197      .   S
    C124   O659      0.74197      .   S
    C122   O660      0.70281      .   S
    C134   O660      0.70281      .   S
    C124   O661      0.70086      .   S
    C196   O661      0.70086      .   S
    C275   O662      0.54436      .   S
    C99    O662      0.54436      .   S
    C275   O663      0.70191      .   S
    C273   O663      0.70191  1_545   S
    C197   O664      0.54554      .   S
    C57    O664      0.54554      .   S
    C274   O665      0.54437      .   S
    C98    O665      0.54437      .   S
    C274   O666      0.70187      .   S
    C272   O666      0.70187      .   S
    C196   O667      0.54555      .   S
    C56    O667      0.54555      .   S
    C273   O668      0.70798      .   S
    C299   O668      0.70798      .   S
    C272   O669      0.70814      .   S
    C298   O669      0.70814      .   S
    C163   O670      0.69490      .   S
    C165   O670      0.69490      .   S
    C163   O671      0.54495      .   S
    C27    O671      0.54495      .   S
    C130   O672      0.69502      .   S
    C132   O672      0.69502      .   S
    C130   O673      0.54491      .   S
    C10    O673      0.54491      .   S
    C131   O674      0.69498      .   S
    C133   O674      0.69498      .   S
    C131   O675      0.54493      .   S
    C11    O675      0.54493      .   S
    C165   O676      0.54475      .   S
    C29    O676      0.54475      .   S
    C132   O677      0.54477      .   S
    C12    O677      0.54477      .   S
    C162   O678      0.69515      .   S
    C164   O678      0.69515      .   S
    C162   O679      0.54459      .   S
    C26    O679      0.54459      .   S
    C133   O680      0.54487      .   S
    C13    O680      0.54487      .   S
    C164   O681      0.54495      .   S
    C28    O681      0.54495      .   S
    C318   O682      1.03766      .   S
    C2     O682      1.03766  1_565   S
    C319   O683      1.03643      .   S
    C3     O683      1.03643      .   S
    C310   O684      1.03556      .   S
    C2     O684      1.03556      .   S
    C137   O685      0.69623      .   S
    C135   O685      0.69623      .   S
    C137   O686      0.54479      .   S
    C17    O686      0.54479      .   S
    C168   O687      0.69635      .   S
    C166   O687      0.69635      .   S
    C168   O688      0.54475      .   S
    C32    O688      0.54475      .   S
    C169   O689      0.69651      .   S
    C167   O689      0.69651      .   S
    C169   O690      0.54484      .   S
    C33    O690      0.54484      .   S
    C311   O691      1.03911      .   S
    C3     O691      1.03911  1_545   S
    C135   O692      0.54553      .   S
    C15    O692      0.54553      .   S
    C308   O693      1.03069      .   S
    C2     O693      1.03069      .   S
    C167   O694      0.54557      .   S
    C31    O694      0.54557      .   S
    C166   O695      0.54556      .   S
    C30    O695      0.54556      .   S
    C317   O696      1.03427      .   S
    C3     O696      1.03427      .   S
    C136   O697      0.69670      .   S
    C134   O697      0.69670      .   S
    C136   O698      0.54483      .   S
    C16    O698      0.54483      .   S
    C134   O699      0.54559      .   S
    C14    O699      0.54559      .   S
    C309   O700      1.02730      .   S
    C3     O700      1.02730  1_545   S
    C316   O701      1.02954      .   S
    C2     O701      1.02954  1_565   S
    C2     O702      1.03730      .   S
    C292   O702      1.03730      .   S
    C3     O703      1.03819      .   S
    C293   O703      1.03819      .   S
    C299   O704      0.63709  1_545   S
    C303   O704      0.63709      .   S
    C298   O705      0.63698  1_565   S
    C302   O705      0.63698      .   S
    C303   O706      0.70896      .   S
    C265   O706      0.70896      .   S
    C302   O707      0.70812      .   S
    C264   O707      0.70812      .   S
    C51    O708      0.54512      .   S
    C190   O708      0.54512  1_455   S
    C50    O709      0.54498      .   S
    C191   O709      0.54498      .   S
    C292   O710      0.67383      .   S
    C190   O710      0.67383      .   S
    C292   O711      0.67600  1_565   S
    C192   O711      0.67600      .   S
    C293   O712      0.67389      .   S
    C191   O712      0.67389      .   S
    C293   O713      0.67550      .   S
    C193   O713      0.67550      .   S
    C52    O714      0.54511      .   S
    C192   O714      0.54511      .   S
    C53    O715      0.54485  1_565   S
    C193   O715      0.54485      .   S
    C107   O716      0.54455      .   S
    C283   O716      0.54455      .   S
    C106   O717      0.54442      .   S
    C282   O717      0.54442      .   S
    C265   O718      0.70201  1_565   S
    C283   O718      0.70201      .   S
    C265   O719      0.69984      .   S
    C277   O719      0.69984      .   S
    C264   O720      0.70227  1_545   S
    C282   O720      0.70227      .   S
    C264   O721      0.70021      .   S
    C276   O721      0.70021      .   S
    C101   O722      0.54478      .   S
    C277   O722      0.54478      .   S
    C100   O723      0.54477      .   S
    C276   O723      0.54477      .   S
    C0     O724      1.41916      .   S
    C2     O724      1.41916      .   S
    C1     O725      1.42060  1_565   S
    C3     O725      1.42060      .   S
    C4     O726      1.41950      .   S
    C6     O726      1.41950  1_565   S
    C5     O727      1.41963  1_545   S
    C7     O727      1.41963      .   S
