# CIF file generated by openbabel 2.4.90, see http://openbabel.sf.net
data_I
_chemical_name_common ''
_cell_length_a 23.263
_cell_length_b 15.816
_cell_length_c 15.993
_cell_angle_alpha 90.014
_cell_angle_beta 89.916
_cell_angle_gamma 90.006
_space_group_name_H-M_alt 'P 1'
_space_group_name_Hall 'P 1'
loop_
    _symmetry_equiv_pos_as_xyz
    x,y,z
loop_
    _atom_site_label
    _atom_site_type_symbol
    _atom_site_fract_x
    _atom_site_fract_y
    _atom_site_fract_z
    _atom_site_occupancy
    Zr0     Zr   0.06744   0.99973   0.57978   1.000
    Zr1     Zr   0.56730   0.99984   0.57994   1.000
    Zr2     Zr   0.07415   0.99977   0.75697   1.000
    Zr3     Zr   0.57481   0.00031   0.75724   1.000
    Zr4     Zr   0.31750   0.00007   0.42069   1.000
    Zr5     Zr   0.81753   0.00001   0.42000   1.000
    Zr6     Zr   0.32507   0.99993   0.24350   1.000
    Zr7     Zr   0.82504   0.99984   0.24279   1.000
    Zr8     Zr   0.49506   0.87670   0.67038   1.000
    Zr9     Zr   0.99354   0.87837   0.66858   1.000
    Zr10    Zr   0.14669   0.87659   0.66941   1.000
    Zr11    Zr   0.64767   0.87813   0.67326   1.000
    Zr12    Zr   0.49432   0.12209   0.66832   1.000
    Zr13    Zr   0.99552   0.12380   0.66771   1.000
    Zr14    Zr   0.14871   0.12028   0.67421   1.000
    Zr15    Zr   0.64836   0.12174   0.66988   1.000
    Zr16    Zr   0.24518   0.12398   0.33299   1.000
    Zr17    Zr   0.74546   0.12209   0.33007   1.000
    Zr18    Zr   0.39758   0.12204   0.33210   1.000
    Zr19    Zr   0.89857   0.12206   0.32388   1.000
    Zr20    Zr   0.24530   0.87799   0.33250   1.000
    Zr21    Zr   0.74523   0.87599   0.33287   1.000
    Zr22    Zr   0.39866   0.87798   0.32583   1.000
    Zr23    Zr   0.89765   0.87805   0.33201   1.000
    Zr24    Zr   0.12552   0.90100   0.59984   1.000
    Zr25    Zr   0.62783   0.90487   0.60371   1.000
    Zr26    Zr   0.00239   0.91124   0.59710   1.000
    Zr27    Zr   0.50489   0.90771   0.59828   1.000
    Zr28    Zr   0.13807   0.91106   0.74035   1.000
    Zr29    Zr   0.63793   0.91028   0.74500   1.000
    Zr30    Zr   0.01452   0.90450   0.73775   1.000
    Zr31    Zr   0.51489   0.90453   0.73950   1.000
    Zr32    Zr   0.12969   0.09242   0.60455   1.000
    Zr33    Zr   0.62730   0.09619   0.60060   1.000
    Zr34    Zr   0.00547   0.09254   0.59572   1.000
    Zr35    Zr   0.50286   0.08915   0.59670   1.000
    Zr36    Zr   0.13787   0.08950   0.74620   1.000
    Zr37    Zr   0.63949   0.08865   0.74138   1.000
    Zr38    Zr   0.01496   0.09581   0.73702   1.000
    Zr39    Zr   0.51531   0.09572   0.73732   1.000
    Zr40    Zr   0.37777   0.09582   0.40207   1.000
    Zr41    Zr   0.87758   0.09576   0.39294   1.000
    Zr42    Zr   0.25471   0.09248   0.40476   1.000
    Zr43    Zr   0.75387   0.08910   0.40160   1.000
    Zr44    Zr   0.38764   0.08939   0.26078   1.000
    Zr45    Zr   0.88978   0.08942   0.25202   1.000
    Zr46    Zr   0.26501   0.09596   0.26360   1.000
    Zr47    Zr   0.76699   0.09628   0.26113   1.000
    Zr48    Zr   0.37757   0.90422   0.39488   1.000
    Zr49    Zr   0.87781   0.90430   0.40189   1.000
    Zr50    Zr   0.25335   0.91122   0.40411   1.000
    Zr51    Zr   0.75470   0.90764   0.40463   1.000
    Zr52    Zr   0.38989   0.91056   0.25394   1.000
    Zr53    Zr   0.88774   0.91066   0.26063   1.000
    Zr54    Zr   0.26718   0.90363   0.26376   1.000
    Zr55    Zr   0.76504   0.90398   0.26357   1.000
    O56     O    0.85741   0.04463   0.24740   1.000
    O57     O    0.85639   0.95525   0.25171   1.000
    O58     O    0.79602   0.04806   0.25196   1.000
    O59     O    0.79504   0.95191   0.25318   1.000
    O60     O    0.35748   0.95525   0.24872   1.000
    O61     O    0.35636   0.04466   0.25214   1.000
    O62     O    0.29504   0.04795   0.25355   1.000
    O63     O    0.29613   0.95178   0.25363   1.000
    O64     O    0.89418   0.10574   0.28795   1.000
    O65     O    0.39427   0.89427   0.28988   1.000
    O66     O    0.89269   0.89435   0.29632   1.000
    O67     O    0.39261   0.10572   0.29644   1.000
    O68     O    0.75622   0.10919   0.29560   1.000
    O69     O    0.75513   0.88999   0.29822   1.000
    O70     O    0.25510   0.10997   0.29829   1.000
    O71     O    0.25624   0.89081   0.29813   1.000
    O72     O    0.88808   0.10891   0.35841   1.000
    O73     O    0.38812   0.89110   0.36035   1.000
    O74     O    0.74967   0.10559   0.36583   1.000
    O75     O    0.88773   0.89118   0.36695   1.000
    O76     O    0.38767   0.10893   0.36708   1.000
    O77     O    0.24932   0.89460   0.36830   1.000
    O78     O    0.74996   0.89182   0.36875   1.000
    O79     O    0.24995   0.10823   0.36887   1.000
    O80     O    0.84756   0.04788   0.40647   1.000
    O81     O    0.34754   0.95215   0.40778   1.000
    O82     O    0.78570   0.04455   0.41080   1.000
    O83     O    0.84767   0.95215   0.41094   1.000
    O84     O    0.34763   0.04795   0.41138   1.000
    O85     O    0.28543   0.95565   0.41240   1.000
    O86     O    0.78611   0.95382   0.41231   1.000
    O87     O    0.28610   0.04628   0.41272   1.000
    O88     O    0.03646   0.04614   0.58775   1.000
    O89     O    0.03492   0.95548   0.58844   1.000
    O90     O    0.09648   0.95037   0.58981   1.000
    O91     O    0.09857   0.04608   0.59216   1.000
    O92     O    0.53508   0.04449   0.58832   1.000
    O93     O    0.53610   0.95378   0.58911   1.000
    O94     O    0.59730   0.04801   0.59027   1.000
    O95     O    0.59756   0.95236   0.59182   1.000
    O96     O    0.00050   0.10817   0.63171   1.000
    O97     O    0.49859   0.10562   0.63251   1.000
    O98     O    0.99797   0.89480   0.63284   1.000
    O99     O    0.49998   0.89220   0.63433   1.000
    O100    O    0.13611   0.88880   0.63462   1.000
    O101    O    0.63783   0.10896   0.63524   1.000
    O102    O    0.63775   0.89150   0.63848   1.000
    O103    O    0.13920   0.10635   0.63938   1.000
    O104    O    0.00524   0.10981   0.70236   1.000
    O105    O    0.50482   0.10890   0.70282   1.000
    O106    O    0.00403   0.89144   0.70316   1.000
    O107    O    0.14238   0.89383   0.70488   1.000
    O108    O    0.64392   0.10519   0.70563   1.000
    O109    O    0.50497   0.89062   0.70494   1.000
    O110    O    0.64280   0.89420   0.70913   1.000
    O111    O    0.14329   0.10489   0.71020   1.000
    O112    O    0.04455   0.04779   0.74699   1.000
    O113    O    0.54506   0.04801   0.74728   1.000
    O114    O    0.04433   0.95214   0.74736   1.000
    O115    O    0.54485   0.95242   0.74837   1.000
    O116    O    0.10611   0.95542   0.74866   1.000
    O117    O    0.60715   0.04448   0.74931   1.000
    O118    O    0.60637   0.95529   0.75112   1.000
    O119    O    0.10601   0.04464   0.75158   1.000
    O120    O    0.07079   0.99975   0.66837   1.000
    O121    O    0.57106   0.00008   0.66859   1.000
    O122    O    0.32129   0.00000   0.33209   1.000
    O123    O    0.82129   0.99992   0.33139   1.000
    N124    N    0.06663   0.99453   0.16812   1.000
    O125    O    0.06812   0.99580   0.99478   1.000
    O126    O    0.06795   0.99709   0.34172   1.000
    N127    N    0.82101   0.50039   0.67181   1.000
    O128    O    0.74426   0.33006   0.67030   1.000
    O129    O    0.74387   0.67023   0.67194   1.000
    O130    O    0.89770   0.67043   0.67120   1.000
    O131    O    0.89867   0.33105   0.67075   1.000
    N132    N    0.32097   0.49928   0.67328   1.000
    O133    O    0.24439   0.32881   0.67313   1.000
    O134    O    0.24343   0.66896   0.67105   1.000
    O135    O    0.39811   0.32968   0.67187   1.000
    O136    O    0.39837   0.66907   0.67288   1.000
    N137    N    0.57151   0.49921   0.32799   1.000
    O138    O    0.49466   0.66960   0.32769   1.000
    O139    O    0.64888   0.66856   0.32937   1.000
    O140    O    0.64880   0.32951   0.32803   1.000
    O141    O    0.49411   0.32961   0.33035   1.000
    N142    N    0.07144   0.50077   0.32805   1.000
    O143    O    0.99454   0.33045   0.32674   1.000
    O144    O    0.14878   0.33137   0.32942   1.000
    O145    O    0.14874   0.67048   0.32922   1.000
    O146    O    0.99415   0.67046   0.33034   1.000
    N147    N    0.31706   0.00300   0.83205   1.000
    O148    O    0.31886   0.00250   0.00547   1.000
    O149    O    0.31824   0.00116   0.65867   1.000
    N150    N    0.56749   0.00850   0.16831   1.000
    O151    O    0.56832   0.00435   0.34188   1.000
    O152    O    0.56910   0.00651   0.99503   1.000
    N153    N    0.81678   0.99570   0.83140   1.000
    O154    O    0.81805   0.99828   0.65793   1.000
    O155    O    0.81872   0.99633   0.00472   1.000
loop_
    _geom_bond_atom_site_label_1
    _geom_bond_atom_site_label_2
    _geom_bond_distance
    _geom_bond_site_symmetry_2
    _ccdc_geom_bond_type
    Zr7    O56       1.03652  1_565   S
    Zr45   O56       1.03652      .   S
    Zr7    O57       1.02466      .   S
    Zr53   O57       1.02466      .   S
    Zr7    O58       1.02904  1_565   S
    Zr47   O58       1.02904      .   S
    Zr7    O59       1.04353      .   S
    Zr55   O59       1.04353      .   S
    Zr6    O60       1.03690      .   S
    Zr52   O60       1.03690      .   S
    Zr6    O61       1.02438  1_565   S
    Zr44   O61       1.02438      .   S
    Zr6    O62       1.04417  1_565   S
    Zr46   O62       1.04417      .   S
    Zr6    O63       1.02920      .   S
    Zr54   O63       1.02920      .   S
    Zr45   O64       0.63825      .   S
    Zr19   O64       0.63825      .   S
    Zr52   O65       0.63838      .   S
    Zr22   O65       0.63838      .   S
    Zr53   O66       0.63706      .   S
    Zr23   O66       0.63706      .   S
    Zr44   O67       0.63670      .   S
    Zr18   O67       0.63670      .   S
    Zr47   O68       0.63861      .   S
    Zr17   O68       0.63861      .   S
    Zr55   O69       0.63940      .   S
    Zr21   O69       0.63940      .   S
    Zr46   O70       0.64012      .   S
    Zr16   O70       0.64012      .   S
    Zr54   O71       0.63850      .   S
    Zr20   O71       0.63850      .   S
    Zr19   O72       0.63832      .   S
    Zr41   O72       0.63832      .   S
    Zr22   O73       0.63848      .   S
    Zr48   O73       0.63848      .   S
    Zr17   O74       0.63644      .   S
    Zr43   O74       0.63644      .   S
    Zr23   O75       0.63888      .   S
    Zr49   O75       0.63888      .   S
    Zr18   O76       0.63939      .   S
    Zr40   O76       0.63939      .   S
    Zr20   O77       0.63701      .   S
    Zr50   O77       0.63701      .   S
    Zr21   O78       0.63572      .   S
    Zr51   O78       0.63572      .   S
    Zr16   O79       0.63559      .   S
    Zr42   O79       0.63559      .   S
    Zr41   O80       1.05250      .   S
    Zr5    O80       1.05250      .   S
    Zr48   O81       1.05119      .   S
    Zr4    O81       1.05119  1_545   S
    Zr43   O82       1.03283      .   S
    Zr5    O82       1.03283      .   S
    Zr49   O83       1.04172      .   S
    Zr5    O83       1.04172  1_545   S
    Zr40   O84       1.04232      .   S
    Zr4    O84       1.04232      .   S
    Zr50   O85       1.03360      .   S
    Zr4    O85       1.03360  1_545   S
    Zr51   O86       1.04059      .   S
    Zr5    O86       1.04059  1_545   S
    Zr42   O87       1.04123      .   S
    Zr4    O87       1.04123      .   S
    Zr0    O88       1.03649  1_565   S
    Zr34   O88       1.03649      .   S
    Zr0    O89       1.03969      .   S
    Zr26   O89       1.03969      .   S
    Zr0    O90       1.04506      .   S
    Zr24   O90       1.04506      .   S
    Zr0    O91       1.04931  1_565   S
    Zr32   O91       1.04931      .   S
    Zr1    O92       1.03839  1_565   S
    Zr35   O92       1.03839      .   S
    Zr1    O93       1.03873      .   S
    Zr27   O93       1.03873      .   S
    Zr1    O94       1.04640  1_565   S
    Zr33   O94       1.04640      .   S
    Zr1    O95       1.04711      .   S
    Zr25   O95       1.04711      .   S
    Zr34   O96       0.63690      .   S
    Zr13   O96       0.63690  1_655   S
    Zr35   O97       0.63677      .   S
    Zr12   O97       0.63677      .   S
    Zr26   O98       0.63620  1_455   S
    Zr9    O98       0.63620      .   S
    Zr27   O99       0.63678      .   S
    Zr8    O99       0.63678      .   S
    Zr24   O100      0.63861      .   S
    Zr10   O100      0.63861      .   S
    Zr33   O101      0.63879      .   S
    Zr15   O101      0.63879      .   S
    Zr25   O102      0.63856      .   S
    Zr11   O102      0.63856      .   S
    Zr32   O103      0.63880      .   S
    Zr14   O103      0.63880      .   S
    Zr13   O104      0.63855  1_655   S
    Zr38   O104      0.63855      .   S
    Zr12   O105      0.63872      .   S
    Zr39   O105      0.63872      .   S
    Zr9    O106      0.63915  1_655   S
    Zr30   O106      0.63915      .   S
    Zr10   O107      0.63714      .   S
    Zr28   O107      0.63714      .   S
    Zr15   O108      0.63710      .   S
    Zr37   O108      0.63710      .   S
    Zr8    O109      0.63830      .   S
    Zr31   O109      0.63830      .   S
    Zr11   O110      0.63743      .   S
    Zr29   O110      0.63743      .   S
    Zr14   O111      0.63749      .   S
    Zr36   O111      0.63749      .   S
    Zr38   O112      1.03766      .   S
    Zr2    O112      1.03766  1_565   S
    Zr39   O113      1.03643      .   S
    Zr3    O113      1.03643      .   S
    Zr30   O114      1.03556      .   S
    Zr2    O114      1.03556      .   S
    Zr31   O115      1.03911      .   S
    Zr3    O115      1.03911  1_545   S
    Zr28   O116      1.03069      .   S
    Zr2    O116      1.03069      .   S
    Zr37   O117      1.03427      .   S
    Zr3    O117      1.03427      .   S
    Zr29   O118      1.02730      .   S
    Zr3    O118      1.02730  1_545   S
    Zr36   O119      1.02954      .   S
    Zr2    O119      1.02954  1_565   S
    Zr0    O120      1.41916      .   S
    Zr2    O120      1.41916      .   S
    Zr1    O121      1.42060  1_565   S
    Zr3    O121      1.42060      .   S
    Zr4    O122      1.41950      .   S
    Zr6    O122      1.41950  1_565   S
    Zr5    O123      1.41963  1_545   S
    Zr7    O123      1.41963      .   S
    N124   O125      2.77245  1_554   S
    Zr2    O125      3.80627      .   S
    N124   O126      2.77682      .   S
    Zr0    O126      3.80753      .   S
    N127   O128      3.23189      .   S
    Zr15   O128      3.97884      .   S
    N127   O129      3.23071      .   S
    Zr11   O129      3.97759      .   S
    N127   O130      3.22711      .   S
    Zr9    O130      3.97340      .   S
    N127   O131      3.23067      .   S
    Zr13   O131      3.97792      .   S
    N132   O133      3.23157      .   S
    Zr14   O133      3.97861      .   S
    N132   O134      3.23393      .   S
    Zr10   O134      3.98132      .   S
    N132   O135      3.22752      .   S
    Zr12   O135      3.97419      .   S
    N132   O136      3.23288      .   S
    Zr8    O136      3.98037      .   S
    N137   O138      3.23407      .   S
    Zr22   O138      3.98146      .   S
    N137   O139      3.22699      .   S
    Zr21   O139      3.97347      .   S
    N137   O140      3.23080      .   S
    Zr17   O140      3.97752      .   S
    N137   O141      3.23071      .   S
    Zr18   O141      3.97737      .   S
    N142   O143      3.23365  1_455   S
    Zr19   O143      3.98093      .   S
    N142   O144      3.22748      .   S
    Zr16   O144      3.97402      .   S
    N142   O145      3.23059      .   S
    Zr20   O145      3.97737      .   S
    N142   O146      3.23090  1_455   S
    Zr23   O146      3.97756      .   S
    N147   O148      2.77391  1_556   S
    Zr6    O148      3.80992  1_565   S
    N147   O149      2.77309      .   S
    Zr4    O149      3.80618      .   S
    N150   O151      2.77674      .   S
    Zr1    O151      3.80805  1_565   S
    N150   O152      2.77160  1_554   S
    Zr3    O152      3.80639      .   S
    N153   O154      2.77469      .   S
    Zr5    O154      3.80532  1_545   S
    N153   O155      2.77235  1_556   S
    Zr7    O155      3.81097      .   S
