# CIF file generated by openbabel 2.4.90, see http://openbabel.sf.net
data_I
_chemical_name_common ''
_cell_length_a 16.019
_cell_length_b 20.377
_cell_length_c 12.161
_cell_angle_alpha 114.729
_cell_angle_beta 98.091
_cell_angle_gamma 89.99
_space_group_name_H-M_alt 'P 1'
_space_group_name_Hall 'P 1'
loop_
    _symmetry_equiv_pos_as_xyz
    x,y,z
loop_
    _atom_site_label
    _atom_site_type_symbol
    _atom_site_fract_x
    _atom_site_fract_y
    _atom_site_fract_z
    _atom_site_occupancy
    C0      C    0.00001   0.99999   0.50002   1.000
    C1      C    0.00001   0.49998   0.50002   1.000
    C2      C    0.50000   0.99999   0.50002   1.000
    C3      C    0.50000   0.49998   0.50002   1.000
    C4      C    0.25000   0.24999   0.50001   1.000
    C5      C    0.25000   0.74998   0.50001   1.000
    C6      C    0.75000   0.24999   0.50002   1.000
    C7      C    0.75000   0.74998   0.50001   1.000
    C8      C    0.48771   0.40204   0.64850   1.000
    C9      C    0.48771   0.90203   0.64850   1.000
    C10     C    0.98770   0.40203   0.64849   1.000
    C11     C    0.98770   0.90203   0.64849   1.000
    C12     C    0.44538   0.40350   0.83700   1.000
    C13     C    0.44538   0.90350   0.83759   1.000
    C14     C    0.94537   0.40350   0.83759   1.000
    C15     C    0.94537   0.90350   0.83759   1.000
    C16     C    0.35128   0.11501   0.90992   1.000
    C17     C    0.35128   0.61500   0.90992   1.000
    C18     C    0.85128   0.11501   0.90993   1.000
    C19     C    0.85128   0.61501   0.90990   1.000
    C20     C    0.39948   0.10473   0.71992   1.000
    C21     C    0.39947   0.60472   0.71992   1.000
    C22     C    0.89947   0.10473   0.71990   1.000
    C23     C    0.89947   0.60472   0.71992   1.000
    C24     C    0.26138   0.07790   0.35120   1.000
    C25     C    0.26138   0.57790   0.35127   1.000
    C26     C    0.76137   0.07790   0.35128   1.000
    C27     C    0.76137   0.57790   0.35128   1.000
    C28     C    0.30351   0.48482   0.16211   1.000
    C29     C    0.30352   0.98483   0.16211   1.000
    C30     C    0.80351   0.48482   0.16211   1.000
    C31     C    0.80351   0.98483   0.16211   1.000
    C32     C    0.40022   0.16003   0.09156   1.000
    C33     C    0.40022   0.66002   0.09156   1.000
    C34     C    0.90022   0.16003   0.09150   1.000
    C35     C    0.90022   0.66003   0.09156   1.000
    C36     C    0.35191   0.24475   0.28139   1.000
    C37     C    0.35191   0.74475   0.28139   1.000
    C38     C    0.85191   0.24476   0.28140   1.000
    C39     C    0.85191   0.74475   0.28140   1.000
    C40     C    0.01230   0.09793   0.35154   1.000
    C41     C    0.01230   0.59793   0.35154   1.000
    C42     C    0.51229   0.09793   0.35150   1.000
    C43     C    0.51229   0.59793   0.35153   1.000
    C44     C    0.05463   0.09647   0.16244   1.000
    C45     C    0.05463   0.59647   0.16244   1.000
    C46     C    0.55462   0.09647   0.16244   1.000
    C47     C    0.55462   0.59647   0.16244   1.000
    C48     C    0.14872   0.38496   0.09011   1.000
    C49     C    0.14872   0.88495   0.09010   1.000
    C50     C    0.64872   0.38496   0.09011   1.000
    C51     C    0.64872   0.88496   0.09011   1.000
    C52     C    0.10052   0.39524   0.28011   1.000
    C53     C    0.10052   0.89524   0.28011   1.000
    C54     C    0.60052   0.39525   0.28010   1.000
    C55     C    0.60052   0.89524   0.28011   1.000
    C56     C    0.23862   0.42207   0.64870   1.000
    C57     C    0.23863   0.92207   0.64875   1.000
    C58     C    0.73862   0.42207   0.64876   1.000
    C59     C    0.73863   0.92207   0.64876   1.000
    C60     C    0.19649   0.01514   0.83792   1.000
    C61     C    0.19649   0.51514   0.83793   1.000
    C62     C    0.69648   0.01514   0.83793   1.000
    C63     C    0.69649   0.51514   0.83793   1.000
    C64     C    0.09978   0.33994   0.90847   1.000
    C65     C    0.09978   0.83994   0.90846   1.000
    C66     C    0.59979   0.33994   0.90847   1.000
    C67     C    0.59978   0.83994   0.90847   1.000
    C68     C    0.14809   0.25522   0.71863   1.000
    C69     C    0.14809   0.75521   0.71863   1.000
    C70     C    0.64810   0.25522   0.71864   1.000
    C71     C    0.64809   0.75521   0.71863   1.000
    C72     C    0.37473   0.45971   0.10000   1.000
    C73     C    0.37473   0.95971   0.00000   1.000
    C74     C    0.87473   0.45971   0.30000   1.000
    C75     C    0.87473   0.95971   0.30000   1.000
    C76     C    0.12527   0.04025   0.99997   1.000
    C77     C    0.12527   0.54025   0.99990   1.000
    C78     C    0.62527   0.04026   0.99997   1.000
    C79     C    0.62527   0.54026   0.99997   1.000
    C80     C    0.07053   0.32654   0.41952   1.000
    C81     C    0.07053   0.82653   0.41952   1.000
    C82     C    0.57053   0.32654   0.41952   1.000
    C83     C    0.57053   0.82654   0.41952   1.000
    C84     C    0.39833   0.01137   0.89552   1.000
    C85     C    0.39834   0.51137   0.89550   1.000
    C86     C    0.89832   0.01137   0.89552   1.000
    C87     C    0.89833   0.51136   0.89552   1.000
    C88     C    0.45892   0.44885   0.71062   1.000
    C89     C    0.45892   0.94884   0.71062   1.000
    C90     C    0.95891   0.44884   0.71062   1.000
    C91     C    0.95891   0.94884   0.71062   1.000
    C92     C    0.43510   0.45018   0.81654   1.000
    C93     C    0.43511   0.95018   0.81654   1.000
    C94     C    0.93510   0.45018   0.81654   1.000
    C95     C    0.93510   0.95018   0.81654   1.000
    C96     C    0.38419   0.06789   0.85880   1.000
    C97     C    0.38418   0.56788   0.85879   1.000
    C98     C    0.88418   0.06789   0.85880   1.000
    C99     C    0.88418   0.56788   0.85880   1.000
    C100    C    0.41016   0.06188   0.75077   1.000
    C101    C    0.41017   0.56188   0.75078   1.000
    C102    C    0.91016   0.06188   0.75070   1.000
    C103    C    0.91016   0.56188   0.75070   1.000
    C104    C    0.17940   0.11656   0.58015   1.000
    C105    C    0.17940   0.61656   0.58015   1.000
    C106    C    0.67940   0.11656   0.58015   1.000
    C107    C    0.67940   0.61656   0.58015   1.000
    C108    C    0.35184   0.06370   0.10503   1.000
    C109    C    0.35185   0.56369   0.10500   1.000
    C110    C    0.85184   0.06370   0.10503   1.000
    C111    C    0.85184   0.56369   0.10503   1.000
    C112    C    0.29066   0.09363   0.28940   1.000
    C113    C    0.29067   0.59362   0.28948   1.000
    C114    C    0.79066   0.09363   0.28948   1.000
    C115    C    0.79066   0.59362   0.28948   1.000
    C116    C    0.31437   0.04201   0.18352   1.000
    C117    C    0.31436   0.54201   0.18352   1.000
    C118    C    0.81436   0.04201   0.18353   1.000
    C119    C    0.81436   0.54201   0.18352   1.000
    C120    C    0.36670   0.13852   0.14223   1.000
    C121    C    0.36670   0.63852   0.14222   1.000
    C122    C    0.86670   0.13853   0.14223   1.000
    C123    C    0.86670   0.63852   0.14220   1.000
    C124    C    0.34072   0.18652   0.25019   1.000
    C125    C    0.34073   0.68652   0.25020   1.000
    C126    C    0.84072   0.18653   0.25020   1.000
    C127    C    0.84072   0.68652   0.25020   1.000
    C128    C    0.42947   0.17343   0.58051   1.000
    C129    C    0.42947   0.67343   0.58051   1.000
    C130    C    0.92947   0.17343   0.58051   1.000
    C131    C    0.92947   0.67343   0.58050   1.000
    C132    C    0.10168   0.48860   0.10451   1.000
    C133    C    0.10167   0.98860   0.10450   1.000
    C134    C    0.60167   0.48860   0.10451   1.000
    C135    C    0.60167   0.98860   0.10451   1.000
    C136    C    0.04109   0.05112   0.28941   1.000
    C137    C    0.04110   0.55112   0.28942   1.000
    C138    C    0.54108   0.05112   0.28941   1.000
    C139    C    0.54108   0.55112   0.28941   1.000
    C140    C    0.06490   0.04979   0.18349   1.000
    C141    C    0.06490   0.54979   0.18349   1.000
    C142    C    0.56490   0.04979   0.18349   1.000
    C143    C    0.56489   0.54979   0.18349   1.000
    C144    C    0.11581   0.43208   0.14120   1.000
    C145    C    0.11582   0.93208   0.14123   1.000
    C146    C    0.61581   0.43209   0.14120   1.000
    C147    C    0.61581   0.93208   0.14123   1.000
    C148    C    0.08985   0.43809   0.24926   1.000
    C149    C    0.08984   0.93809   0.24925   1.000
    C150    C    0.58984   0.43809   0.24926   1.000
    C151    C    0.58983   0.93809   0.24920   1.000
    C152    C    0.32060   0.38341   0.41988   1.000
    C153    C    0.32060   0.88341   0.41988   1.000
    C154    C    0.82060   0.38341   0.41988   1.000
    C155    C    0.82060   0.88341   0.41988   1.000
    C156    C    0.14816   0.43627   0.89500   1.000
    C157    C    0.14816   0.93627   0.89499   1.000
    C158    C    0.64815   0.43627   0.89500   1.000
    C159    C    0.64815   0.93627   0.89500   1.000
    C160    C    0.20935   0.40634   0.71056   1.000
    C161    C    0.20934   0.90634   0.71055   1.000
    C162    C    0.70934   0.40635   0.71056   1.000
    C163    C    0.70934   0.90634   0.71055   1.000
    C164    C    0.18563   0.45796   0.81650   1.000
    C165    C    0.18564   0.95795   0.81651   1.000
    C166    C    0.68563   0.45796   0.81651   1.000
    C167    C    0.68564   0.95796   0.81651   1.000
    C168    C    0.13329   0.36145   0.85700   1.000
    C169    C    0.13330   0.86144   0.85780   1.000
    C170    C    0.63330   0.36145   0.85781   1.000
    C171    C    0.63330   0.86144   0.85780   1.000
    C172    C    0.15929   0.31345   0.74983   1.000
    C173    C    0.15928   0.81344   0.74982   1.000
    C174    C    0.65928   0.31345   0.74983   1.000
    C175    C    0.65928   0.81344   0.74983   1.000
    C176    C    0.09803   0.24335   0.35060   1.000
    C177    C    0.09803   0.74335   0.35065   1.000
    C178    C    0.59803   0.24335   0.35065   1.000
    C179    C    0.59803   0.74335   0.35065   1.000
    C180    C    0.15234   0.06716   0.64821   1.000
    C181    C    0.15234   0.56716   0.64822   1.000
    C182    C    0.65233   0.06716   0.64820   1.000
    C183    C    0.65233   0.56716   0.64822   1.000
    C184    C    0.40197   0.25662   0.64938   1.000
    C185    C    0.40197   0.75662   0.64938   1.000
    C186    C    0.90197   0.25662   0.64938   1.000
    C187    C    0.90197   0.75662   0.64938   1.000
    C188    C    0.34767   0.43280   0.35181   1.000
    C189    C    0.34767   0.93280   0.35181   1.000
    C190    C    0.84766   0.43281   0.35181   1.000
    C191    C    0.84766   0.93281   0.35180   1.000
    C192    C    0.05000   0.38654   0.46930   1.000
    C193    C    0.05001   0.88654   0.46938   1.000
    C194    C    0.55000   0.38654   0.46939   1.000
    C195    C    0.55000   0.88654   0.46939   1.000
    C196    C    0.44834   0.00439   0.67792   1.000
    C197    C    0.44834   0.50439   0.67792   1.000
    C198    C    0.94833   0.00439   0.67792   1.000
    C199    C    0.94834   0.50439   0.67792   1.000
    C200    C    0.19958   0.15207   0.53078   1.000
    C201    C    0.19958   0.65206   0.53078   1.000
    C202    C    0.69958   0.15207   0.53078   1.000
    C203    C    0.69958   0.65206   0.53078   1.000
    C204    C    0.30186   0.16549   0.32255   1.000
    C205    C    0.30185   0.66549   0.32254   1.000
    C206    C    0.80185   0.16549   0.32255   1.000
    C207    C    0.80185   0.66549   0.32250   1.000
    C208    C    0.45000   0.11343   0.53065   1.000
    C209    C    0.45000   0.61343   0.53065   1.000
    C210    C    0.94999   0.11343   0.53065   1.000
    C211    C    0.95000   0.61343   0.53065   1.000
    C212    C    0.05166   0.49557   0.32211   1.000
    C213    C    0.05167   0.99557   0.32211   1.000
    C214    C    0.55166   0.49558   0.32211   1.000
    C215    C    0.55166   0.99557   0.32211   1.000
    C216    C    0.30042   0.34791   0.46925   1.000
    C217    C    0.30042   0.84790   0.46925   1.000
    C218    C    0.80041   0.34791   0.46925   1.000
    C219    C    0.80042   0.84790   0.46925   1.000
    C220    C    0.19814   0.33448   0.67748   1.000
    C221    C    0.19815   0.83447   0.67748   1.000
    C222    C    0.69815   0.33448   0.67749   1.000
    C223    C    0.69815   0.83448   0.67748   1.000
    C224    C    0.37501   0.00978   0.00024   1.000
    C225    C    0.37501   0.50978   0.00000   1.000
    C226    C    0.87501   0.00978   0.00024   1.000
    C227    C    0.87501   0.50978   0.00024   1.000
    C228    C    0.12499   0.49019   0.99980   1.000
    C229    C    0.12500   0.99018   0.99980   1.000
    C230    C    0.62499   0.49019   0.99980   1.000
    C231    C    0.62500   0.99019   0.99980   1.000
    O232    O    0.36343   0.53673   0.05250   1.000
    O233    O    0.38667   0.51057   0.94775   1.000
    O234    O    0.86343   0.53674   0.05263   1.000
    O235    O    0.88667   0.51057   0.94788   1.000
    O236    O    0.86342   0.03674   0.05263   1.000
    O237    O    0.88666   0.01058   0.94788   1.000
    O238    O    0.36342   0.03674   0.05263   1.000
    O239    O    0.38667   0.01057   0.94788   1.000
    O240    O    0.37487   0.98475   0.00012   1.000
    O241    O    0.13227   0.90852   0.11567   1.000
    O242    O    0.13226   0.40852   0.11566   1.000
    O243    O    0.63227   0.40852   0.11566   1.000
    O244    O    0.63227   0.90852   0.11567   1.000
    O245    O    0.88346   0.14928   0.11686   1.000
    O246    O    0.38346   0.14928   0.11690   1.000
    O247    O    0.38346   0.64927   0.11689   1.000
    O248    O    0.88346   0.64927   0.11688   1.000
    O249    O    0.10875   0.96034   0.12287   1.000
    O250    O    0.08329   0.01919   0.14399   1.000
    O251    O    0.11334   0.98939   0.05215   1.000
    O252    O    0.60874   0.96034   0.12287   1.000
    O253    O    0.58328   0.01919   0.14400   1.000
    O254    O    0.61333   0.98939   0.05216   1.000
    O255    O    0.60874   0.46034   0.12286   1.000
    O256    O    0.58328   0.51920   0.14400   1.000
    O257    O    0.61333   0.48940   0.05216   1.000
    O258    O    0.10874   0.46034   0.12286   1.000
    O259    O    0.08329   0.51919   0.14400   1.000
    O260    O    0.11334   0.48940   0.05216   1.000
    O261    O    0.35927   0.60111   0.12361   1.000
    O262    O    0.33311   0.55285   0.14426   1.000
    O263    O    0.35927   0.10111   0.12363   1.000
    O264    O    0.33310   0.05286   0.14428   1.000
    O265    O    0.85927   0.10111   0.12363   1.000
    O266    O    0.83310   0.05286   0.14428   1.000
    O267    O    0.85927   0.60111   0.12361   1.000
    O268    O    0.83310   0.55285   0.14428   1.000
    O269    O    0.60283   0.43509   0.19523   1.000
    O270    O    0.10283   0.43509   0.19523   1.000
    O271    O    0.60282   0.93508   0.19522   1.000
    O272    O    0.10283   0.93508   0.19524   1.000
    O273    O    0.85371   0.66252   0.19620   1.000
    O274    O    0.35371   0.66252   0.19621   1.000
    O275    O    0.35371   0.16252   0.19621   1.000
    O276    O    0.85371   0.16253   0.19622   1.000
    O277    O    0.30894   0.01342   0.17282   1.000
    O278    O    0.80894   0.51342   0.17282   1.000
    O279    O    0.80894   0.01342   0.17282   1.000
    O280    O    0.30894   0.51342   0.17282   1.000
    O281    O    0.05977   0.07313   0.17297   1.000
    O282    O    0.05976   0.57313   0.17297   1.000
    O283    O    0.55976   0.07313   0.17297   1.000
    O284    O    0.55976   0.57313   0.17297   1.000
    O285    O    0.55299   0.55046   0.23645   1.000
    O286    O    0.55299   0.05046   0.23645   1.000
    O287    O    0.05300   0.55046   0.23645   1.000
    O288    O    0.05300   0.05046   0.23645   1.000
    O289    O    0.30251   0.06782   0.23646   1.000
    O290    O    0.30251   0.56782   0.23650   1.000
    O291    O    0.80251   0.56782   0.23650   1.000
    O292    O    0.80251   0.06782   0.23651   1.000
    O293    O    0.59518   0.91666   0.26466   1.000
    O294    O    0.57075   0.96683   0.28565   1.000
    O295    O    0.09518   0.91666   0.26468   1.000
    O296    O    0.07075   0.96683   0.28568   1.000
    O297    O    0.59518   0.41667   0.26468   1.000
    O298    O    0.57075   0.46683   0.28569   1.000
    O299    O    0.09519   0.41667   0.26469   1.000
    O300    O    0.07075   0.46683   0.28569   1.000
    O301    O    0.34631   0.21564   0.26579   1.000
    O302    O    0.32129   0.17601   0.28637   1.000
    O303    O    0.84631   0.21564   0.26580   1.000
    O304    O    0.82129   0.17601   0.28638   1.000
    O305    O    0.84631   0.71564   0.26580   1.000
    O306    O    0.82129   0.67601   0.28635   1.000
    O307    O    0.34632   0.71563   0.26579   1.000
    O308    O    0.32129   0.67600   0.28637   1.000
    O309    O    0.29626   0.12956   0.30597   1.000
    O310    O    0.27602   0.08577   0.32030   1.000
    O311    O    0.54637   0.52335   0.30576   1.000
    O312    O    0.52669   0.57453   0.32047   1.000
    O313    O    0.04638   0.02335   0.30576   1.000
    O314    O    0.02669   0.07453   0.32048   1.000
    O315    O    0.54637   0.02335   0.30576   1.000
    O316    O    0.52668   0.07453   0.32045   1.000
    O317    O    0.04638   0.52335   0.30577   1.000
    O318    O    0.02670   0.57453   0.32048   1.000
    O319    O    0.79626   0.12956   0.30602   1.000
    O320    O    0.77601   0.08577   0.32038   1.000
    O321    O    0.79626   0.62956   0.30599   1.000
    O322    O    0.77602   0.58576   0.32038   1.000
    O323    O    0.29626   0.62956   0.30601   1.000
    O324    O    0.27602   0.58576   0.32038   1.000
    O325    O    0.02583   0.49778   0.41107   1.000
    O326    O    0.02584   0.99778   0.41107   1.000
    O327    O    0.52583   0.49778   0.41107   1.000
    O328    O    0.52583   0.99778   0.41107   1.000
    O329    O    0.77593   0.70774   0.41125   1.000
    O330    O    0.27593   0.70773   0.41128   1.000
    O331    O    0.77593   0.20774   0.41129   1.000
    O332    O    0.27593   0.20774   0.41128   1.000
    O333    O    0.08428   0.28494   0.38506   1.000
    O334    O    0.17402   0.24667   0.42530   1.000
    O335    O    0.08428   0.78494   0.38509   1.000
    O336    O    0.17402   0.74666   0.42533   1.000
    O337    O    0.58428   0.28495   0.38509   1.000
    O338    O    0.67401   0.24667   0.42534   1.000
    O339    O    0.58428   0.78494   0.38509   1.000
    O340    O    0.67402   0.74667   0.42533   1.000
    O341    O    0.83413   0.90811   0.38584   1.000
    O342    O    0.92383   0.96640   0.42591   1.000
    O343    O    0.86119   0.94626   0.32590   1.000
    O344    O    0.83413   0.40811   0.38584   1.000
    O345    O    0.92384   0.46640   0.42592   1.000
    O346    O    0.86119   0.44626   0.32591   1.000
    O347    O    0.33414   0.90810   0.38584   1.000
    O348    O    0.42383   0.96639   0.42592   1.000
    O349    O    0.33414   0.40811   0.38584   1.000
    O350    O    0.42384   0.46639   0.42592   1.000
    O351    O    0.06027   0.85654   0.44445   1.000
    O352    O    0.56026   0.35654   0.44446   1.000
    O353    O    0.56027   0.85654   0.44446   1.000
    O354    O    0.06027   0.35654   0.44441   1.000
    O355    O    0.31051   0.86565   0.44456   1.000
    O356    O    0.81051   0.86566   0.44456   1.000
    O357    O    0.81051   0.36566   0.44456   1.000
    O358    O    0.31051   0.36566   0.44456   1.000
    O359    O    0.77521   0.79894   0.48463   1.000
    O360    O    0.77521   0.29895   0.48463   1.000
    O361    O    0.27521   0.79894   0.48463   1.000
    O362    O    0.27521   0.29895   0.48463   1.000
    O363    O    0.02501   0.44326   0.48466   1.000
    O364    O    0.02501   0.94326   0.48470   1.000
    O365    O    0.52500   0.44326   0.48470   1.000
    O366    O    0.52500   0.94326   0.48470   1.000
    O367    O    0.72479   0.70102   0.51540   1.000
    O368    O    0.82598   0.75330   0.57469   1.000
    O369    O    0.72407   0.79223   0.58874   1.000
    O370    O    0.22479   0.70102   0.51540   1.000
    O371    O    0.32598   0.75330   0.57469   1.000
    O372    O    0.22408   0.79223   0.58874   1.000
    O373    O    0.22479   0.20103   0.51540   1.000
    O374    O    0.32598   0.25330   0.57469   1.000
    O375    O    0.22407   0.29223   0.58874   1.000
    O376    O    0.97500   0.55671   0.51533   1.000
    O377    O    0.07618   0.53357   0.57412   1.000
    O378    O    0.97417   0.50219   0.58897   1.000
    O379    O    0.97500   0.05671   0.51533   1.000
    O380    O    0.07617   0.03357   0.57411   1.000
    O381    O    0.97417   0.00219   0.58897   1.000
    O382    O    0.47500   0.05671   0.51533   1.000
    O383    O    0.57616   0.03357   0.57411   1.000
    O384    O    0.47417   0.00219   0.58897   1.000
    O385    O    0.47500   0.55671   0.51533   1.000
    O386    O    0.57617   0.53357   0.57412   1.000
    O387    O    0.47417   0.50219   0.58897   1.000
    O388    O    0.72479   0.20103   0.51540   1.000
    O389    O    0.82598   0.25331   0.57470   1.000
    O390    O    0.72407   0.29223   0.58876   1.000
    O391    O    0.43974   0.14343   0.55558   1.000
    O392    O    0.43974   0.64343   0.55558   1.000
    O393    O    0.93973   0.14343   0.55558   1.000
    O394    O    0.93973   0.64343   0.55558   1.000
    O395    O    0.18949   0.13431   0.55546   1.000
    O396    O    0.18949   0.63431   0.55546   1.000
    O397    O    0.68949   0.13432   0.55546   1.000
    O398    O    0.68949   0.63431   0.55546   1.000
    O399    O    0.66586   0.09186   0.61418   1.000
    O400    O    0.66587   0.59186   0.61418   1.000
    O401    O    0.16587   0.59186   0.61418   1.000
    O402    O    0.16587   0.09186   0.61418   1.000
    O403    O    0.91572   0.71503   0.61494   1.000
    O404    O    0.41572   0.21503   0.61494   1.000
    O405    O    0.41572   0.71502   0.61494   1.000
    O406    O    0.91572   0.21503   0.61494   1.000
    O407    O    0.97330   0.92544   0.67956   1.000
    O408    O    0.97331   0.42544   0.67956   1.000
    O409    O    0.47332   0.42544   0.67956   1.000
    O410    O    0.47331   0.92544   0.67956   1.000
    O411    O    0.22398   0.41421   0.67963   1.000
    O412    O    0.22398   0.91420   0.67965   1.000
    O413    O    0.72398   0.41421   0.67966   1.000
    O414    O    0.72398   0.91420   0.67966   1.000
    O415    O    0.70374   0.87041   0.69402   1.000
    O416    O    0.67871   0.82396   0.71366   1.000
    O417    O    0.20374   0.87041   0.69402   1.000
    O418    O    0.17871   0.82396   0.71365   1.000
    O419    O    0.20374   0.37041   0.69402   1.000
    O420    O    0.17871   0.32396   0.71366   1.000
    O421    O    0.70374   0.37041   0.69403   1.000
    O422    O    0.67871   0.32396   0.71366   1.000
    O423    O    0.45363   0.47662   0.69427   1.000
    O424    O    0.42925   0.53313   0.71435   1.000
    O425    O    0.95362   0.97662   0.69427   1.000
    O426    O    0.92925   0.03314   0.71431   1.000
    O427    O    0.95362   0.47662   0.69427   1.000
    O428    O    0.92925   0.53313   0.71431   1.000
    O429    O    0.45363   0.97662   0.69427   1.000
    O430    O    0.42925   0.03314   0.71435   1.000
    O431    O    0.69749   0.93215   0.76353   1.000
    O432    O    0.19749   0.93215   0.76353   1.000
    O433    O    0.69749   0.43215   0.76353   1.000
    O434    O    0.19749   0.43215   0.76353   1.000
    O435    O    0.44701   0.44951   0.76358   1.000
    O436    O    0.94700   0.94951   0.76358   1.000
    O437    O    0.94700   0.44951   0.76358   1.000
    O438    O    0.44701   0.94951   0.76358   1.000
    O439    O    0.15368   0.78433   0.73422   1.000
    O440    O    0.15369   0.28433   0.73423   1.000
    O441    O    0.65369   0.78433   0.73423   1.000
    O442    O    0.65369   0.28433   0.73423   1.000
    O443    O    0.90482   0.08330   0.73530   1.000
    O444    O    0.90481   0.58330   0.73531   1.000
    O445    O    0.40482   0.58330   0.73535   1.000
    O446    O    0.40482   0.08330   0.73535   1.000
    O447    O    0.14629   0.83744   0.80381   1.000
    O448    O    0.14629   0.33745   0.80341   1.000
    O449    O    0.64629   0.83744   0.80382   1.000
    O450    O    0.64629   0.33745   0.80382   1.000
    O451    O    0.89717   0.06488   0.80475   1.000
    O452    O    0.89717   0.56488   0.80475   1.000
    O453    O    0.39717   0.06488   0.80479   1.000
    O454    O    0.39717   0.56488   0.80479   1.000
    O455    O    0.19106   0.48655   0.82722   1.000
    O456    O    0.16690   0.44711   0.85575   1.000
    O457    O    0.69106   0.98655   0.82722   1.000
    O458    O    0.66690   0.94711   0.85576   1.000
    O459    O    0.19106   0.98655   0.82722   1.000
    O460    O    0.16690   0.94711   0.85575   1.000
    O461    O    0.69106   0.48655   0.82722   1.000
    O462    O    0.66689   0.44712   0.85576   1.000
    O463    O    0.44024   0.42684   0.82677   1.000
    O464    O    0.41672   0.48077   0.85602   1.000
    O465    O    0.94024   0.92684   0.82707   1.000
    O466    O    0.91671   0.98077   0.85603   1.000
    O467    O    0.94023   0.42684   0.82707   1.000
    O468    O    0.91671   0.48077   0.85603   1.000
    O469    O    0.44024   0.92684   0.82707   1.000
    O470    O    0.41672   0.98077   0.85603   1.000
    O471    O    0.14073   0.39886   0.87600   1.000
    O472    O    0.11654   0.35069   0.88273   1.000
    O473    O    0.14073   0.89885   0.87640   1.000
    O474    O    0.11654   0.85069   0.88313   1.000
    O475    O    0.64073   0.89886   0.87640   1.000
    O476    O    0.61654   0.85069   0.88314   1.000
    O477    O    0.64073   0.39886   0.87641   1.000
    O478    O    0.61654   0.35069   0.88314   1.000
    O479    O    0.39126   0.53962   0.87714   1.000
    O480    O    0.36773   0.59144   0.88435   1.000
    O481    O    0.39126   0.03963   0.87716   1.000
    O482    O    0.36773   0.09145   0.88436   1.000
    O483    O    0.89125   0.03963   0.87716   1.000
    O484    O    0.86773   0.09145   0.88437   1.000
    O485    O    0.89125   0.53962   0.87716   1.000
    O486    O    0.86773   0.59144   0.88435   1.000
    O487    O    0.13658   0.96323   0.94740   1.000
    O488    O    0.13658   0.46323   0.94740   1.000
    O489    O    0.63658   0.96323   0.94740   1.000
    O490    O    0.63657   0.46323   0.94740   1.000
    O491    O    0.62513   0.01522   0.99989   1.000
    O492    O    0.62513   0.51522   0.99989   1.000
    O493    O    0.12514   0.01522   0.99989   1.000
    O494    O    0.12513   0.51522   0.99985   1.000
loop_
    _geom_bond_atom_site_label_1
    _geom_bond_atom_site_label_2
    _geom_bond_distance
    _geom_bond_site_symmetry_2
    _ccdc_geom_bond_type
    C225   O232      0.69545      .   S
    C109   O232      0.69545      .   S
    C225   O233      0.69352  1_554   S
    C85    O233      0.69352      .   S
    C227   O234      0.69468      .   S
    C111   O234      0.69468      .   S
    C227   O235      0.69477  1_554   S
    C87    O235      0.69477      .   S
    C226   O236      0.69469      .   S
    C110   O236      0.69469      .   S
    C226   O237      0.69475  1_554   S
    C86    O237      0.69475      .   S
    C224   O238      0.69470      .   S
    C108   O238      0.69470      .   S
    C224   O239      0.69476  1_554   S
    C84    O239      0.69476      .   S
    C224   O240      0.50952  1_545   S
    C73    O240      0.50952      .   S
    C49    O241      0.54292      .   S
    C145   O241      0.54292      .   S
    C48    O242      0.54286      .   S
    C144   O242      0.54286      .   S
    C50    O243      0.54286      .   S
    C146   O243      0.54286      .   S
    C51    O244      0.54290      .   S
    C147   O244      0.54290      .   S
    C34    O245      0.54323      .   S
    C122   O245      0.54323      .   S
    C32    O246      0.54291      .   S
    C120   O246      0.54291      .   S
    C33    O247      0.54290      .   S
    C121   O247      0.54290      .   S
    C35    O248      0.54279      .   S
    C123   O248      0.54279      .   S
    C133   O249      0.70337      .   S
    C145   O249      0.70337      .   S
    C133   O250      0.70381  1_565   S
    C140   O250      0.70381      .   S
    C133   O251      0.69467      .   S
    C229   O251      0.69467  1_556   S
    C135   O252      0.70333      .   S
    C147   O252      0.70333      .   S
    C135   O253      0.70379  1_565   S
    C142   O253      0.70379      .   S
    C135   O254      0.69473      .   S
    C231   O254      0.69473  1_556   S
    C134   O255      0.70322      .   S
    C146   O255      0.70322      .   S
    C134   O256      0.70376      .   S
    C143   O256      0.70376      .   S
    C134   O257      0.69472      .   S
    C230   O257      0.69472  1_556   S
    C132   O258      0.70327      .   S
    C144   O258      0.70327      .   S
    C132   O259      0.70377      .   S
    C141   O259      0.70377      .   S
    C132   O260      0.69467      .   S
    C228   O260      0.69467  1_556   S
    C109   O261      0.70331      .   S
    C121   O261      0.70331      .   S
    C109   O262      0.70398      .   S
    C117   O262      0.70398      .   S
    C108   O263      0.70335      .   S
    C120   O263      0.70335      .   S
    C108   O264      0.70375      .   S
    C116   O264      0.70375      .   S
    C110   O265      0.70335      .   S
    C122   O265      0.70335      .   S
    C110   O266      0.70382      .   S
    C118   O266      0.70382      .   S
    C111   O267      0.70338      .   S
    C123   O267      0.70338      .   S
    C111   O268      0.70378      .   S
    C119   O268      0.70378      .   S
    C146   O269      0.69541      .   S
    C150   O269      0.69541      .   S
    C144   O270      0.69534      .   S
    C148   O270      0.69534      .   S
    C147   O271      0.69491      .   S
    C151   O271      0.69491      .   S
    C145   O272      0.69519      .   S
    C149   O272      0.69519      .   S
    C123   O273      0.69530      .   S
    C127   O273      0.69530      .   S
    C121   O274      0.69519      .   S
    C125   O274      0.69519      .   S
    C120   O275      0.69516      .   S
    C124   O275      0.69516      .   S
    C122   O276      0.69519      .   S
    C126   O276      0.69519      .   S
    C29    O277      0.54530  1_565   S
    C116   O277      0.54530      .   S
    C30    O278      0.54527      .   S
    C119   O278      0.54527      .   S
    C31    O279      0.54528  1_565   S
    C118   O279      0.54528      .   S
    C28    O280      0.54527      .   S
    C117   O280      0.54527      .   S
    C44    O281      0.54525      .   S
    C140   O281      0.54525      .   S
    C45    O282      0.54528      .   S
    C141   O282      0.54528      .   S
    C46    O283      0.54524      .   S
    C142   O283      0.54524      .   S
    C47    O284      0.54524      .   S
    C143   O284      0.54524      .   S
    C143   O285      0.69181      .   S
    C139   O285      0.69181      .   S
    C142   O286      0.69183      .   S
    C138   O286      0.69183      .   S
    C141   O287      0.69181      .   S
    C137   O287      0.69181      .   S
    C140   O288      0.69183      .   S
    C136   O288      0.69183      .   S
    C116   O289      0.69153      .   S
    C112   O289      0.69153      .   S
    C117   O290      0.69179      .   S
    C113   O290      0.69179      .   S
    C119   O291      0.69182      .   S
    C115   O291      0.69182      .   S
    C118   O292      0.69179      .   S
    C114   O292      0.69179      .   S
    C151   O293      0.54526      .   S
    C55    O293      0.54526      .   S
    C151   O294      0.67375      .   S
    C215   O294      0.67375      .   S
    C149   O295      0.54507      .   S
    C53    O295      0.54507      .   S
    C149   O296      0.67364      .   S
    C213   O296      0.67364      .   S
    C150   O297      0.54499      .   S
    C54    O297      0.54499      .   S
    C150   O298      0.67363      .   S
    C214   O298      0.67363      .   S
    C148   O299      0.54506      .   S
    C52    O299      0.54506      .   S
    C148   O300      0.67364      .   S
    C212   O300      0.67364      .   S
    C124   O301      0.54503      .   S
    C36    O301      0.54503      .   S
    C124   O302      0.67368      .   S
    C204   O302      0.67368      .   S
    C126   O303      0.54504      .   S
    C38    O303      0.54504      .   S
    C126   O304      0.67364      .   S
    C206   O304      0.67364      .   S
    C127   O305      0.54503      .   S
    C39    O305      0.54503      .   S
    C127   O306      0.67340      .   S
    C207   O306      0.67340      .   S
    C125   O307      0.54503      .   S
    C37    O307      0.54503      .   S
    C125   O308      0.67364      .   S
    C205   O308      0.67364      .   S
    C112   O309      0.67545      .   S
    C204   O309      0.67545      .   S
    C112   O310      0.54505      .   S
    C24    O310      0.54505      .   S
    C139   O311      0.67555      .   S
    C214   O311      0.67555      .   S
    C139   O312      0.54505      .   S
    C43    O312      0.54505      .   S
    C136   O313      0.67558      .   S
    C213   O313      0.67558  1_565   S
    C136   O314      0.54506      .   S
    C40    O314      0.54506      .   S
    C138   O315      0.67558      .   S
    C215   O315      0.67558  1_565   S
    C138   O316      0.54497      .   S
    C42    O316      0.54497      .   S
    C137   O317      0.67556      .   S
    C212   O317      0.67556      .   S
    C137   O318      0.54506      .   S
    C41    O318      0.54506      .   S
    C114   O319      0.67554      .   S
    C206   O319      0.67554      .   S
    C114   O320      0.54506      .   S
    C26    O320      0.54506      .   S
    C115   O321      0.67559      .   S
    C207   O321      0.67559      .   S
    C115   O322      0.54507      .   S
    C27    O322      0.54507      .   S
    C113   O323      0.67553      .   S
    C205   O323      0.67553      .   S
    C113   O324      0.54504      .   S
    C25    O324      0.54504      .   S
    C212   O325      1.19528      .   S
    C1     O325      1.19528      .   S
    C213   O326      1.19532      .   S
    C0     O326      1.19532      .   S
    C214   O327      1.19531      .   S
    C3     O327      1.19531      .   S
    C215   O328      1.19533      .   S
    C2     O328      1.19533      .   S
    C207   O329      1.19467      .   S
    C7     O329      1.19467      .   S
    C205   O330      1.19450      .   S
    C5     O330      1.19450      .   S
    C206   O331      1.19452      .   S
    C6     O331      1.19452      .   S
    C204   O332      1.19448      .   S
    C4     O332      1.19448      .   S
    C176   O333      0.81930      .   S
    C80    O333      0.81930      .   S
    C176   O334      1.39599      .   S
    C4     O334      1.39599      .   S
    C177   O335      0.81926      .   S
    C81    O335      0.81926      .   S
    C177   O336      1.39585      .   S
    C5     O336      1.39585      .   S
    C178   O337      0.81926      .   S
    C82    O337      0.81926      .   S
    C178   O338      1.39588      .   S
    C6     O338      1.39588      .   S
    C179   O339      0.81926      .   S
    C83    O339      0.81926      .   S
    C179   O340      1.39586      .   S
    C7     O340      1.39586      .   S
    C191   O341      0.81931      .   S
    C155   O341      0.81931      .   S
    C191   O342      1.39437      .   S
    C0     O342      1.39437  1_455   S
    C191   O343      0.55931      .   S
    C75    O343      0.55931      .   S
    C190   O344      0.81924      .   S
    C154   O344      0.81924      .   S
    C190   O345      1.39438      .   S
    C1     O345      1.39438  1_455   S
    C190   O346      0.55935      .   S
    C74    O346      0.55935      .   S
    C189   O347      0.81927      .   S
    C153   O347      0.81927      .   S
    C189   O348      1.39422      .   S
    C2     O348      1.39422      .   S
    C188   O349      0.81924      .   S
    C152   O349      0.81924      .   S
    C188   O350      1.39425      .   S
    C3     O350      1.39425      .   S
    C81    O351      0.59298      .   S
    C193   O351      0.59298      .   S
    C82    O352      0.59299      .   S
    C194   O352      0.59299      .   S
    C83    O353      0.59299      .   S
    C195   O353      0.59299      .   S
    C80    O354      0.59292      .   S
    C192   O354      0.59292      .   S
    C153   O355      0.59298      .   S
    C217   O355      0.59298      .   S
    C155   O356      0.59299      .   S
    C219   O356      0.59299      .   S
    C154   O357      0.59296      .   S
    C218   O357      0.59296      .   S
    C152   O358      0.59297      .   S
    C216   O358      0.59297      .   S
    C219   O359      1.17086      .   S
    C7     O359      1.17086      .   S
    C218   O360      1.17088      .   S
    C6     O360      1.17088      .   S
    C217   O361      1.17087      .   S
    C5     O361      1.17087      .   S
    C216   O362      1.17086      .   S
    C4     O362      1.17086      .   S
    C192   O363      1.17107      .   S
    C1     O363      1.17107      .   S
    C193   O364      1.17122      .   S
    C0     O364      1.17122      .   S
    C194   O365      1.17118      .   S
    C3     O365      1.17118      .   S
    C195   O366      1.17123      .   S
    C2     O366      1.17123      .   S
    C7     O367      1.17089      .   S
    C203   O367      1.17089      .   S
    C7     O368      1.39587      .   S
    C187   O368      1.39587      .   S
    C7     O369      1.19450      .   S
    C223   O369      1.19450      .   S
    C5     O370      1.17088      .   S
    C201   O370      1.17088      .   S
    C5     O371      1.39587      .   S
    C185   O371      1.39587      .   S
    C5     O372      1.19451      .   S
    C221   O372      1.19451      .   S
    C4     O373      1.17089      .   S
    C200   O373      1.17089      .   S
    C4     O374      1.39588      .   S
    C184   O374      1.39588      .   S
    C4     O375      1.19454      .   S
    C220   O375      1.19454      .   S
    C1     O376      1.17123  1_455   S
    C211   O376      1.17123      .   S
    C1     O377      1.39424      .   S
    C181   O377      1.39424      .   S
    C1     O378      1.19534  1_455   S
    C199   O378      1.19534      .   S
    C0     O379      1.17124  1_465   S
    C210   O379      1.17124      .   S
    C0     O380      1.39424  1_565   S
    C180   O380      1.39424      .   S
    C0     O381      1.19532  1_465   S
    C198   O381      1.19532      .   S
    C2     O382      1.17118  1_565   S
    C208   O382      1.17118      .   S
    C2     O383      1.39422  1_565   S
    C182   O383      1.39422      .   S
    C2     O384      1.19526  1_565   S
    C196   O384      1.19526      .   S
    C3     O385      1.17118      .   S
    C209   O385      1.17118      .   S
    C3     O386      1.39425      .   S
    C183   O386      1.39425      .   S
    C3     O387      1.19529      .   S
    C197   O387      1.19529      .   S
    C6     O388      1.17086      .   S
    C202   O388      1.17086      .   S
    C6     O389      1.39585      .   S
    C186   O389      1.39585      .   S
    C6     O390      1.19451      .   S
    C222   O390      1.19451      .   S
    C208   O391      0.59299      .   S
    C128   O391      0.59299      .   S
    C209   O392      0.59299      .   S
    C129   O392      0.59299      .   S
    C210   O393      0.59299      .   S
    C130   O393      0.59299      .   S
    C211   O394      0.59298      .   S
    C131   O394      0.59298      .   S
    C200   O395      0.59298      .   S
    C104   O395      0.59298      .   S
    C201   O396      0.59297      .   S
    C105   O396      0.59297      .   S
    C202   O397      0.59299      .   S
    C106   O397      0.59299      .   S
    C203   O398      0.59297      .   S
    C107   O398      0.59297      .   S
    C106   O399      0.81917      .   S
    C182   O399      0.81917      .   S
    C107   O400      0.81924      .   S
    C183   O400      0.81924      .   S
    C105   O401      0.81925      .   S
    C181   O401      0.81925      .   S
    C104   O402      0.81922      .   S
    C180   O402      0.81922      .   S
    C131   O403      0.81927      .   S
    C187   O403      0.81927      .   S
    C128   O404      0.81926      .   S
    C184   O404      0.81926      .   S
    C129   O405      0.81926      .   S
    C185   O405      0.81926      .   S
    C130   O406      0.81926      .   S
    C186   O406      0.81926      .   S
    C11    O407      0.54507      .   S
    C91    O407      0.54507      .   S
    C10    O408      0.54506      .   S
    C90    O408      0.54506      .   S
    C8     O409      0.54504      .   S
    C88    O409      0.54504      .   S
    C9     O410      0.54505      .   S
    C89    O410      0.54505      .   S
    C56    O411      0.54534      .   S
    C160   O411      0.54534      .   S
    C57    O412      0.54508      .   S
    C161   O412      0.54508      .   S
    C58    O413      0.54507      .   S
    C162   O413      0.54507      .   S
    C59    O414      0.54502      .   S
    C163   O414      0.54502      .   S
    C223   O415      0.67554      .   S
    C163   O415      0.67554      .   S
    C223   O416      0.67367      .   S
    C175   O416      0.67367      .   S
    C221   O417      0.67553      .   S
    C161   O417      0.67553      .   S
    C221   O418      0.67363      .   S
    C173   O418      0.67363      .   S
    C220   O419      0.67555      .   S
    C160   O419      0.67555      .   S
    C220   O420      0.67360      .   S
    C172   O420      0.67360      .   S
    C222   O421      0.67554      .   S
    C162   O421      0.67554      .   S
    C222   O422      0.67360      .   S
    C174   O422      0.67360      .   S
    C197   O423      0.67553      .   S
    C88    O423      0.67553      .   S
    C197   O424      0.67364      .   S
    C101   O424      0.67364      .   S
    C198   O425      0.67559  1_545   S
    C91    O425      0.67559      .   S
    C198   O426      0.67347      .   S
    C102   O426      0.67347      .   S
    C199   O427      0.67555      .   S
    C90    O427      0.67555      .   S
    C199   O428      0.67347      .   S
    C103   O428      0.67347      .   S
    C196   O429      0.67559  1_545   S
    C89    O429      0.67559      .   S
    C196   O430      0.67363      .   S
    C100   O430      0.67363      .   S
    C163   O431      0.69181      .   S
    C167   O431      0.69181      .   S
    C161   O432      0.69179      .   S
    C165   O432      0.69179      .   S
    C162   O433      0.69178      .   S
    C166   O433      0.69178      .   S
    C160   O434      0.69179      .   S
    C164   O434      0.69179      .   S
    C88    O435      0.69187      .   S
    C92    O435      0.69187      .   S
    C91    O436      0.69180      .   S
    C95    O436      0.69180      .   S
    C90    O437      0.69182      .   S
    C94    O437      0.69182      .   S
    C89    O438      0.69181      .   S
    C93    O438      0.69181      .   S
    C69    O439      0.54504      .   S
    C173   O439      0.54504      .   S
    C68    O440      0.54503      .   S
    C172   O440      0.54503      .   S
    C71    O441      0.54503      .   S
    C175   O441      0.54503      .   S
    C70    O442      0.54504      .   S
    C174   O442      0.54504      .   S
    C22    O443      0.54484      .   S
    C102   O443      0.54484      .   S
    C23    O444      0.54475      .   S
    C103   O444      0.54475      .   S
    C21    O445      0.54505      .   S
    C101   O445      0.54505      .   S
    C20    O446      0.54503      .   S
    C100   O446      0.54503      .   S
    C173   O447      0.69520      .   S
    C169   O447      0.69520      .   S
    C172   O448      0.69188      .   S
    C168   O448      0.69188      .   S
    C175   O449      0.69518      .   S
    C171   O449      0.69518      .   S
    C174   O450      0.69523      .   S
    C170   O450      0.69523      .   S
    C102   O451      0.69562      .   S
    C98    O451      0.69562      .   S
    C103   O452      0.69565      .   S
    C99    O452      0.69565      .   S
    C100   O453      0.69523      .   S
    C96    O453      0.69523      .   S
    C101   O454      0.69517      .   S
    C97    O454      0.69517      .   S
    C164   O455      0.54525      .   S
    C61    O455      0.54525      .   S
    C164   O456      0.70377      .   S
    C156   O456      0.70377      .   S
    C167   O457      0.54527      .   S
    C62    O457      0.54527  1_545   S
    C167   O458      0.70380      .   S
    C159   O458      0.70380      .   S
    C165   O459      0.54529      .   S
    C60    O459      0.54529  1_545   S
    C165   O460      0.70376      .   S
    C157   O460      0.70376      .   S
    C166   O461      0.54527      .   S
    C63    O461      0.54527      .   S
    C166   O462      0.70378      .   S
    C158   O462      0.70378      .   S
    C92    O463      0.54316      .   S
    C12    O463      0.54316      .   S
    C92    O464      0.70370      .   S
    C85    O464      0.70370      .   S
    C95    O465      0.54527      .   S
    C15    O465      0.54527      .   S
    C95    O466      0.70379      .   S
    C86    O466      0.70379  1_545   S
    C94    O467      0.54525      .   S
    C14    O467      0.54525      .   S
    C94    O468      0.70374      .   S
    C87    O468      0.70374      .   S
    C93    O469      0.54525      .   S
    C13    O469      0.54525      .   S
    C93    O470      0.70380      .   S
    C84    O470      0.70380  1_545   S
    C168   O471      0.70262      .   S
    C156   O471      0.70262      .   S
    C168   O472      0.54683      .   S
    C64    O472      0.54683      .   S
    C169   O473      0.70335      .   S
    C157   O473      0.70335      .   S
    C169   O474      0.54290      .   S
    C65    O474      0.54290      .   S
    C171   O475      0.70334      .   S
    C159   O475      0.70334      .   S
    C171   O476      0.54294      .   S
    C67    O476      0.54294      .   S
    C170   O477      0.70336      .   S
    C158   O477      0.70336      .   S
    C170   O478      0.54288      .   S
    C66    O478      0.54288      .   S
    C97    O479      0.70326      .   S
    C85    O479      0.70326      .   S
    C97    O480      0.54292      .   S
    C17    O480      0.54292      .   S
    C96    O481      0.70334      .   S
    C84    O481      0.70334      .   S
    C96    O482      0.54291      .   S
    C16    O482      0.54291      .   S
    C98    O483      0.70336      .   S
    C86    O483      0.70336      .   S
    C98    O484      0.54292      .   S
    C18    O484      0.54292      .   S
    C99    O485      0.70333      .   S
    C87    O485      0.70333      .   S
    C99    O486      0.54287      .   S
    C19    O486      0.54287      .   S
    C157   O487      0.69473      .   S
    C229   O487      0.69473      .   S
    C156   O488      0.69474      .   S
    C228   O488      0.69474      .   S
    C159   O489      0.69471      .   S
    C231   O489      0.69471      .   S
    C158   O490      0.69471      .   S
    C230   O490      0.69471      .   S
    C231   O491      0.50970  1_565   S
    C78    O491      0.50970      .   S
    C230   O492      0.50967      .   S
    C79    O492      0.50967      .   S
    C229   O493      0.50969  1_565   S
    C76    O493      0.50969      .   S
    C228   O494      0.50986      .   S
    C77    O494      0.50986      .   S
