# CIF file generated by openbabel 2.4.90, see http://openbabel.sf.net
data_I
_chemical_name_common ''
_cell_length_a 16.019
_cell_length_b 20.377
_cell_length_c 12.161
_cell_angle_alpha 114.729
_cell_angle_beta 98.091
_cell_angle_gamma 89.99
_space_group_name_H-M_alt 'P 1'
_space_group_name_Hall 'P 1'
loop_
    _symmetry_equiv_pos_as_xyz
    x,y,z
loop_
    _atom_site_label
    _atom_site_type_symbol
    _atom_site_fract_x
    _atom_site_fract_y
    _atom_site_fract_z
    _atom_site_occupancy
    Zr0     Zr   0.00001   0.99999   0.50002   1.000
    Zr1     Zr   0.00001   0.49998   0.50002   1.000
    Zr2     Zr   0.50000   0.99999   0.50002   1.000
    Zr3     Zr   0.50000   0.49998   0.50002   1.000
    Zr4     Zr   0.25000   0.24999   0.50001   1.000
    Zr5     Zr   0.25000   0.74998   0.50001   1.000
    Zr6     Zr   0.75000   0.24999   0.50002   1.000
    Zr7     Zr   0.75000   0.74998   0.50001   1.000
    N8      N    0.62492   0.94557   0.99977   1.000
    O9      O    0.57537   0.97168   0.20542   1.000
    O10     O    0.67450   0.86890   0.79426   1.000
    N11     N    0.87509   0.55890   0.00026   1.000
    O12     O    0.82551   0.63332   0.20576   1.000
    O13     O    0.92463   0.53054   0.79462   1.000
    N14     N    0.62492   0.44558   0.99977   1.000
    O15     O    0.67450   0.36890   0.79426   1.000
    O16     O    0.57537   0.47168   0.20542   1.000
    N17     N    0.12492   0.94557   0.99977   1.000
    O18     O    0.07538   0.97168   0.20542   1.000
    O19     O    0.17450   0.86890   0.79426   1.000
    N20     N    0.17711   0.61193   0.58638   1.000
    O21     O    0.20095   0.65648   0.55089   1.000
    O22     O    0.12664   0.57275   0.58025   1.000
    N23     N    0.12492   0.44557   0.99973   1.000
    O24     O    0.17450   0.36890   0.79424   1.000
    O25     O    0.07538   0.47168   0.20540   1.000
    N26     N    0.17711   0.11193   0.58638   1.000
    O27     O    0.12664   0.07275   0.58025   1.000
    O28     O    0.20095   0.15648   0.55089   1.000
    N29     N    0.42715   0.68116   0.58685   1.000
    O30     O    0.45108   0.61893   0.55109   1.000
    O31     O    0.37657   0.71723   0.58077   1.000
    N32     N    0.42715   0.18116   0.58685   1.000
    O33     O    0.45107   0.11893   0.55109   1.000
    O34     O    0.37657   0.21723   0.58077   1.000
    N35     N    0.37510   0.55890   0.00023   1.000
    O36     O    0.32551   0.63332   0.20575   1.000
    O37     O    0.42463   0.53054   0.79460   1.000
    N38     N    0.37508   0.05440   0.00025   1.000
    O39     O    0.42463   0.02829   0.79461   1.000
    O40     O    0.32550   0.13107   0.20577   1.000
    N41     N    0.83585   0.90596   0.38523   1.000
    O42     O    0.80553   0.85245   0.43493   1.000
    O43     O    0.87984   0.93618   0.40557   1.000
    N44     N    0.87509   0.05891   0.00026   1.000
    O45     O    0.82551   0.13332   0.20577   1.000
    O46     O    0.92463   0.03055   0.79462   1.000
    N47     N    0.57285   0.81881   0.41319   1.000
    O48     O    0.54893   0.88104   0.44895   1.000
    O49     O    0.62343   0.78274   0.41926   1.000
    N50     N    0.92714   0.68116   0.58684   1.000
    O51     O    0.87656   0.71723   0.58077   1.000
    O52     O    0.95107   0.61893   0.55109   1.000
    N53     N    0.57285   0.31881   0.41319   1.000
    O54     O    0.62343   0.28274   0.41926   1.000
    O55     O    0.54893   0.38104   0.44895   1.000
    N56     N    0.07286   0.81881   0.41318   1.000
    O57     O    0.04893   0.88104   0.44894   1.000
    O58     O    0.12344   0.78274   0.41926   1.000
    N59     N    0.32290   0.88804   0.41365   1.000
    O60     O    0.29906   0.84349   0.44914   1.000
    O61     O    0.37337   0.92722   0.41978   1.000
    N62     N    0.92714   0.18116   0.58685   1.000
    O63     O    0.95107   0.11894   0.55109   1.000
    O64     O    0.87656   0.21723   0.58077   1.000
    N65     N    0.32290   0.38804   0.41365   1.000
    O66     O    0.29905   0.34349   0.44914   1.000
    O67     O    0.37337   0.42722   0.41978   1.000
    N68     N    0.67710   0.11193   0.58638   1.000
    O69     O    0.62663   0.07275   0.58024   1.000
    O70     O    0.70094   0.15648   0.55089   1.000
    N71     N    0.83585   0.40596   0.38523   1.000
    O72     O    0.80553   0.35245   0.43493   1.000
    O73     O    0.87984   0.43618   0.40557   1.000
    N74     N    0.07286   0.31881   0.41314   1.000
    O75     O    0.12344   0.28274   0.41922   1.000
    O76     O    0.04893   0.38104   0.44890   1.000
    N77     N    0.37473   0.45971   0.10000   1.000
    N78     N    0.67710   0.61193   0.58638   1.000
    O79     O    0.70095   0.65648   0.55089   1.000
    O80     O    0.62664   0.57275   0.58025   1.000
loop_
    _geom_bond_atom_site_label_1
    _geom_bond_atom_site_label_2
    _geom_bond_distance
    _geom_bond_site_symmetry_2
    _ccdc_geom_bond_type
    N8     O9        2.57157  1_556   S
    Zr2    O9        3.75696      .   S
    N8     O10       2.57082      .   S
    Zr7    O10       3.75523      .   S
    N11    O12       2.56191      .   S
    Zr7    O12       3.74428      .   S
    N11    O13       2.56270  1_554   S
    Zr1    O13       3.74587  1_455   S
    N14    O15       2.57079      .   S
    Zr6    O15       3.75519      .   S
    N14    O16       2.57155  1_556   S
    Zr3    O16       3.75692      .   S
    N17    O18       2.57154  1_556   S
    Zr0    O18       3.75692      .   S
    N17    O19       2.57082      .   S
    Zr5    O19       3.75523      .   S
    N20    O21       1.23714      .   S
    Zr5    O21       2.39885      .   S
    N20    O22       1.10900      .   S
    Zr1    O22       2.34499      .   S
    N23    O24       2.57062      .   S
    Zr4    O24       3.75506      .   S
    N23    O25       2.57178  1_556   S
    Zr1    O25       3.75712      .   S
    N26    O27       1.10901      .   S
    Zr0    O27       2.34501  1_565   S
    N26    O28       1.23714      .   S
    Zr4    O28       2.39887      .   S
    N29    O30       1.23662      .   S
    Zr3    O30       2.39826      .   S
    N29    O31       1.10933      .   S
    Zr5    O31       2.34690      .   S
    N32    O33       1.23662      .   S
    Zr2    O33       2.39825  1_565   S
    N32    O34       1.10934      .   S
    Zr4    O34       2.34692      .   S
    N35    O36       2.56217      .   S
    Zr5    O36       3.74434      .   S
    N35    O37       2.56248  1_554   S
    Zr3    O37       3.74560      .   S
    N38    O39       2.57146  1_554   S
    Zr2    O39       3.75677  1_565   S
    N38    O40       2.57086      .   S
    Zr4    O40       3.75523      .   S
    N41    O42       1.55697      .   S
    Zr7    O42       2.71269      .   S
    N41    O43       0.87214      .   S
    Zr0    O43       2.20095  1_455   S
    N44    O45       2.56204      .   S
    Zr6    O45       3.74423      .   S
    N44    O46       2.56270  1_554   S
    Zr0    O46       3.74586  1_465   S
    N47    O48       1.23664      .   S
    Zr2    O48       2.39832      .   S
    N47    O49       1.10931      .   S
    Zr7    O49       2.34687      .   S
    N50    O51       1.10932      .   S
    Zr7    O51       2.34688      .   S
    N50    O52       1.23664      .   S
    Zr1    O52       2.39834  1_455   S
    N53    O54       1.10932      .   S
    Zr6    O54       2.34689      .   S
    N53    O55       1.23661      .   S
    Zr3    O55       2.39825      .   S
    N56    O57       1.23664      .   S
    Zr0    O57       2.39831      .   S
    N56    O58       1.10931      .   S
    Zr5    O58       2.34686      .   S
    N59    O60       1.23714      .   S
    Zr5    O60       2.39883      .   S
    N59    O61       1.10902      .   S
    Zr2    O61       2.34499      .   S
    N62    O63       1.23665      .   S
    Zr0    O63       2.39835  1_465   S
    N62    O64       1.10932      .   S
    Zr6    O64       2.34686      .   S
    N65    O66       1.23712      .   S
    Zr4    O66       2.39881      .   S
    N65    O67       1.10901      .   S
    Zr3    O67       2.34501      .   S
    N68    O69       1.10903      .   S
    Zr2    O69       2.34504  1_565   S
    N68    O70       1.23712      .   S
    Zr6    O70       2.39881      .   S
    N71    O72       1.55695      .   S
    Zr6    O72       2.71269      .   S
    N71    O73       0.87214      .   S
    Zr1    O73       2.20098  1_455   S
    N74    O75       1.10933      .   S
    Zr4    O75       2.34701      .   S
    N74    O76       1.23661      .   S
    Zr1    O76       2.39819      .   S
    N78    O79       1.23714      .   S
    Zr7    O79       2.39886      .   S
    N78    O80       1.10901      .   S
    Zr3    O80       2.34502      .   S
