# CIF file generated by openbabel 2.4.90, see http://openbabel.sf.net
data_I
_chemical_name_common ''
_cell_length_a 18.425
_cell_length_b 18.43
_cell_length_c 18.431
_cell_angle_alpha 60.151
_cell_angle_beta 60.163
_cell_angle_gamma 60.161
_space_group_name_H-M_alt 'P 1'
_space_group_name_Hall 'P 1'
loop_
    _symmetry_equiv_pos_as_xyz
    x,y,z
loop_
    _atom_site_label
    _atom_site_type_symbol
    _atom_site_fract_x
    _atom_site_fract_y
    _atom_site_fract_z
    _atom_site_occupancy
    N0      N    0.49998   0.49999   0.99999   1.000
    N1      N    0.99998   0.99999   0.49998   1.000
    N2      N    0.99998   0.49999   0.99999   1.000
    N3      N    0.49998   0.99999   0.49937   1.000
    N4      N    0.99998   0.49999   0.49994   1.000
    N5      N    0.49998   0.99999   0.99993   1.000
    Zr6     Zr   0.24998   0.24997   0.24993   1.000
    Zr7     Zr   0.74999   0.75001   0.75003   1.000
    O8      O    0.83255   0.66750   0.83258   1.000
    O9      O    0.16742   0.33248   0.16739   1.000
    O10     O    0.66743   0.83253   0.66731   1.000
    O11     O    0.33254   0.16746   0.33235   1.000
    O12     O    0.83252   0.66745   0.66744   1.000
    O13     O    0.16745   0.33254   0.33245   1.000
    O14     O    0.66748   0.83257   0.83257   1.000
    O15     O    0.33249   0.16742   0.16737   1.000
    O16     O    0.66744   0.66745   0.83254   1.000
    O17     O    0.83255   0.83257   0.66752   1.000
    O18     O    0.33253   0.33254   0.16743   1.000
    O19     O    0.16742   0.16742   0.33245   1.000
loop_
    _geom_bond_atom_site_label_1
    _geom_bond_atom_site_label_2
    _geom_bond_distance
    _geom_bond_site_symmetry_2
    _ccdc_geom_bond_type
    N2     O8        4.36820      .   S
    Zr7    O8        2.15387      .   S
    N2     O9        4.36795  1_656   S
    Zr6    O9        2.15374      .   S
    N3     O10       4.37520      .   S
    Zr7    O10       2.15612      .   S
    N3     O11       4.36318  1_565   S
    Zr6    O11       2.15224      .   S
    N4     O12       4.37098      .   S
    Zr7    O12       2.15513      .   S
    N4     O13       4.37073  1_655   S
    Zr6    O13       2.15431      .   S
    N5     O14       4.36873      .   S
    Zr7    O14       2.15446      .   S
    N5     O15       4.36968  1_566   S
    Zr6    O15       2.15470      .   S
    Zr7    O16       2.15407      .   S
    N0     O16       4.36893      .   S
    Zr7    O17       2.15395      .   S
    N1     O17       4.36833      .   S
    Zr6    O18       2.15407      .   S
    N0     O18       4.36893  1_556   S
    Zr6    O19       2.15395      .   S
    N1     O19       4.36833  1_665   S
