# CIF file generated by openbabel 2.4.90, see http://openbabel.sf.net
data_I
_chemical_name_common ''
_cell_length_a 18.425
_cell_length_b 18.43
_cell_length_c 18.431
_cell_angle_alpha 60.151
_cell_angle_beta 60.163
_cell_angle_gamma 60.161
_space_group_name_H-M_alt 'P 1'
_space_group_name_Hall 'P 1'
loop_
    _symmetry_equiv_pos_as_xyz
    x,y,z
loop_
    _atom_site_label
    _atom_site_type_symbol
    _atom_site_fract_x
    _atom_site_fract_y
    _atom_site_fract_z
    _atom_site_occupancy
    N0      N    0.49998   0.49999   0.99999   1.000
    N1      N    0.99998   0.99999   0.49998   1.000
    N2      N    0.99998   0.49999   0.99999   1.000
    N3      N    0.49998   0.99999   0.49937   1.000
    N4      N    0.99998   0.49999   0.49994   1.000
    N5      N    0.49998   0.99999   0.99993   1.000
    Zr6     Zr   0.24998   0.24997   0.24993   1.000
    O7      O    0.33249   0.33250   0.14884   1.000
    O8      O    0.33248   0.18599   0.14880   1.000
    O9      O    0.18599   0.33249   0.14882   1.000
    O10     O    0.18600   0.14884   0.33244   1.000
    O11     O    0.33249   0.14886   0.33232   1.000
    O12     O    0.33249   0.14885   0.18594   1.000
    O13     O    0.14884   0.18599   0.33245   1.000
    O14     O    0.14885   0.33251   0.33236   1.000
    O15     O    0.14884   0.33247   0.18596   1.000
    O16     O    0.33259   0.18605   0.33238   1.000
    O17     O    0.18605   0.33257   0.33254   1.000
    O18     O    0.33257   0.33258   0.18603   1.000
    Zr19    Zr   0.74999   0.75001   0.75003   1.000
    O20     O    0.81397   0.85114   0.66752   1.000
    O21     O    0.66747   0.85112   0.66734   1.000
    O22     O    0.66748   0.85114   0.81401   1.000
    O23     O    0.66738   0.81393   0.66728   1.000
    O24     O    0.81392   0.66741   0.66740   1.000
    O25     O    0.66740   0.66741   0.81395   1.000
    O26     O    0.85112   0.81400   0.66752   1.000
    O27     O    0.85111   0.66748   0.66748   1.000
    O28     O    0.85112   0.66751   0.81401   1.000
    O29     O    0.66748   0.81400   0.85114   1.000
    O30     O    0.66747   0.66748   0.85113   1.000
    O31     O    0.81397   0.66749   0.85115   1.000
loop_
    _geom_bond_atom_site_label_1
    _geom_bond_atom_site_label_2
    _geom_bond_distance
    _geom_bond_site_symmetry_2
    _ccdc_geom_bond_type
    Zr6    O7        2.18131      .   S
    N0     O7        4.38220  1_556   S
    Zr6    O8        2.18186      .   S
    N5     O8        4.38310  1_566   S
    Zr6    O9        2.18092      .   S
    N2     O9        4.38138  1_656   S
    Zr6    O10       2.18113      .   S
    N1     O10       4.38178  1_665   S
    Zr6    O11       2.17973      .   S
    N3     O11       4.37612  1_565   S
    Zr6    O12       2.18181      .   S
    N5     O12       4.38316  1_566   S
    Zr6    O13       2.18109      .   S
    N1     O13       4.38180  1_665   S
    Zr6    O14       2.18105      .   S
    N4     O14       4.38471  1_655   S
    Zr6    O15       2.18088      .   S
    N2     O15       4.38142  1_656   S
    Zr6    O16       2.17919      .   S
    N3     O16       4.37722  1_565   S
    Zr6    O17       2.18209      .   S
    N4     O17       4.38376  1_655   S
    Zr6    O18       2.18123      .   S
    N0     O18       4.38261  1_556   S
    Zr19   O20       2.18114      .   S
    N1     O20       4.38177      .   S
    Zr19   O21       2.18314      .   S
    N3     O21       4.38877      .   S
    Zr19   O22       2.18164      .   S
    N5     O22       4.38210      .   S
    Zr19   O23       2.18345      .   S
    N3     O23       4.38853      .   S
    Zr19   O24       2.18228      .   S
    N4     O24       4.38460      .   S
    Zr19   O25       2.18119      .   S
    N0     O25       4.38263      .   S
    Zr19   O26       2.18109      .   S
    N1     O26       4.38180      .   S
    Zr19   O27       2.18234      .   S
    N4     O27       4.38428      .   S
    Zr19   O28       2.18102      .   S
    N2     O28       4.38166      .   S
    Zr19   O29       2.18154      .   S
    N5     O29       4.38225      .   S
    Zr19   O30       2.18132      .   S
    N0     O30       4.38218      .   S
    Zr19   O31       2.18104      .   S
    N2     O31       4.38166      .   S
