# CIF file generated by openbabel 2.4.90, see http://openbabel.sf.net
data_I
_chemical_name_common ''
_cell_length_a 12.333
_cell_length_b 13.793
_cell_length_c 17.568
_cell_angle_alpha 90.008
_cell_angle_beta 93.554
_cell_angle_gamma 89.971
_space_group_name_H-M_alt 'P 1'
_space_group_name_Hall 'P 1'
loop_
    _symmetry_equiv_pos_as_xyz
    x,y,z
loop_
    _atom_site_label
    _atom_site_type_symbol
    _atom_site_fract_x
    _atom_site_fract_y
    _atom_site_fract_z
    _atom_site_occupancy
    Lv0     Lv   0.13226   0.85847   0.53034   1.000
    Lv1     Lv   0.63214   0.64148   0.53037   1.000
    Lv2     Lv   0.86769   0.14155   0.46961   1.000
    Lv3     Lv   0.36781   0.35854   0.46959   1.000
