# CIF file generated by openbabel 2.4.90, see http://openbabel.sf.net
data_I
_chemical_name_common ''
_cell_length_a 12.333
_cell_length_b 13.793
_cell_length_c 17.568
_cell_angle_alpha 90.008
_cell_angle_beta 93.554
_cell_angle_gamma 89.971
_space_group_name_H-M_alt 'P 1'
_space_group_name_Hall 'P 1'
loop_
    _symmetry_equiv_pos_as_xyz
    x,y,z
loop_
    _atom_site_label
    _atom_site_type_symbol
    _atom_site_fract_x
    _atom_site_fract_y
    _atom_site_fract_z
    _atom_site_occupancy
    H0      H    0.46556   0.69668   0.84206   1.000
    H1      H    0.27735   0.38919   0.02326   1.000
    H2      H    0.25944   0.57971   0.79541   1.000
    H3      H    0.12029   0.61218   0.80143   1.000
    H4      H    0.52751   0.72922   0.13791   1.000
    H5      H    0.50149   0.83850   0.09163   1.000
    H6      H    0.03433   0.19667   0.15795   1.000
    H7      H    0.22263   0.88954   0.97657   1.000
    H8      H    0.24052   0.07958   0.20471   1.000
    H9      H    0.37965   0.11207   0.19868   1.000
    H10     H    0.97227   0.22917   0.86211   1.000
    H11     H    0.99836   0.33842   0.90839   1.000
    H12     H    0.53439   0.30335   0.15792   1.000
    H13     H    0.72260   0.61084   0.97671   1.000
    H14     H    0.74051   0.42031   0.20457   1.000
    H15     H    0.87967   0.38784   0.19850   1.000
    H16     H    0.47244   0.27081   0.86207   1.000
    H17     H    0.49846   0.16153   0.90830   1.000
    H18     H    0.96562   0.80335   0.84203   1.000
    H19     H    0.77732   0.11049   0.02340   1.000
    H20     H    0.75943   0.92044   0.79526   1.000
    H21     H    0.62031   0.88795   0.80130   1.000
    H22     H    0.02769   0.77085   0.13787   1.000
    H23     H    0.00160   0.66160   0.09159   1.000
    C24     C    0.48174   0.68883   0.90313   1.000
    C25     C    0.51109   0.72121   0.02252   1.000
    C26     C    0.18731   0.52952   0.88814   1.000
    C27     C    0.23126   0.43478   0.98270   1.000
    C28     C    0.43418   0.45676   0.75386   1.000
    C29     C    0.11912   0.37040   0.21991   1.000
    C30     C    0.01813   0.18882   0.09688   1.000
    C31     C    0.98872   0.22118   0.97749   1.000
    C32     C    0.31266   0.02954   0.11189   1.000
    C33     C    0.26872   0.93504   0.01720   1.000
    C34     C    0.06585   0.95667   0.24611   1.000
    C35     C    0.38089   0.87039   0.78005   1.000
    C36     C    0.51821   0.31120   0.09685   1.000
    C37     C    0.48886   0.27881   0.97746   1.000
    C38     C    0.81265   0.47050   0.11183   1.000
    C39     C    0.76869   0.56524   0.01728   1.000
    C40     C    0.56576   0.54326   0.24611   1.000
    C41     C    0.88084   0.62963   0.78007   1.000
    C42     C    0.98183   0.81121   0.90310   1.000
    C43     C    0.01124   0.77885   0.02249   1.000
    C44     C    0.68730   0.97049   0.88808   1.000
    C45     C    0.73124   0.06498   0.98277   1.000
    C46     C    0.93410   0.04335   0.75387   1.000
    C47     C    0.61906   0.12963   0.21993   1.000
    N48     N    0.27310   0.47852   0.92190   1.000
    N49     N    0.09683   0.51561   0.92687   1.000
    N50     N    0.12711   0.45471   0.98822   1.000
    N51     N    0.19272   0.58766   0.82708   1.000
    N52     N    0.51220   0.62404   0.01597   1.000
    N53     N    0.49249   0.76417   0.95278   1.000
    N54     N    0.49388   0.60409   0.93828   1.000
    N55     N    0.53182   0.76995   0.08929   1.000
    N56     N    0.22688   0.97866   0.07807   1.000
    N57     N    0.40313   0.01567   0.07310   1.000
    N58     N    0.37285   0.95495   0.01169   1.000
    N59     N    0.30723   0.08754   0.17305   1.000
    N60     N    0.98756   0.12401   0.98404   1.000
    N61     N    0.00740   0.26416   0.04723   1.000
    N62     N    0.00594   0.10408   0.06173   1.000
    N63     N    0.96798   0.26992   0.91073   1.000
    N64     N    0.72686   0.52150   0.07807   1.000
    N65     N    0.90312   0.48442   0.07310   1.000
    N66     N    0.87284   0.54531   0.01176   1.000
    N67     N    0.80723   0.41236   0.17290   1.000
    N68     N    0.48775   0.37599   0.98400   1.000
    N69     N    0.50746   0.23585   0.04720   1.000
    N70     N    0.50608   0.39593   0.06170   1.000
    N71     N    0.46813   0.23008   0.91069   1.000
    N72     N    0.77307   0.02136   0.92190   1.000
    N73     N    0.59682   0.98435   0.92685   1.000
    N74     N    0.62711   0.04507   0.98829   1.000
    N75     N    0.69272   0.91248   0.82693   1.000
    N76     N    0.01239   0.87601   0.01594   1.000
    N77     N    0.99255   0.73587   0.95275   1.000
    N78     N    0.99401   0.89594   0.93825   1.000
    N79     N    0.03198   0.73010   0.08920   1.000
    O80     O    0.02168   0.34994   0.22983   1.000
    O81     O    0.15231   0.40403   0.15607   1.000
    O82     O    0.39822   0.54066   0.76630   1.000
    O83     O    0.46817   0.40041   0.81008   1.000
    O84     O    0.47835   0.84994   0.77010   1.000
    O85     O    0.34766   0.90406   0.84389   1.000
    O86     O    0.10175   0.04053   0.23362   1.000
    O87     O    0.03185   0.90038   0.18987   1.000
    O88     O    0.97827   0.65008   0.77014   1.000
    O89     O    0.84764   0.59598   0.84391   1.000
    O90     O    0.60174   0.45937   0.23360   1.000
    O91     O    0.53179   0.59962   0.18900   1.000
    O92     O    0.52160   0.15008   0.22984   1.000
    O93     O    0.65229   0.09597   0.15608   1.000
    O94     O    0.89821   0.95949   0.76635   1.000
    O95     O    0.96810   0.09965   0.81011   1.000
loop_
    _geom_bond_atom_site_label_1
    _geom_bond_atom_site_label_2
    _geom_bond_distance
    _geom_bond_site_symmetry_2
    _ccdc_geom_bond_type
    N58    C33       1.32282      .   S
    N58    N57       1.39817  1_565   S
    N66    C39       1.32285      .   S
    N66    N65       1.39866      .   S
    N76    C43       1.34536      .   S
    N76    N78       1.39696  1_454   S
    N52    C25       1.34537      .   S
    N52    N54       1.39691  1_554   S
    C33    N56       1.35638      .   S
    C33    H7        1.08458  1_554   S
    C39    N64       1.35636      .   S
    C39    H13       1.08450  1_554   S
    C43    N79       1.36155      .   S
    C43    N77       1.36769  1_454   S
    C25    N55       1.36234      .   S
    C25    N53       1.36751  1_554   S
    H1     C27       1.08439  1_554   S
    H19    C45       1.08459  1_554   S
    N69    C36       1.35794      .   S
    N69    C37       1.36751  1_554   S
    N61    C30       1.35792      .   S
    N61    C31       1.36767  1_454   S
    N70    C36       1.32603      .   S
    N70    N68       1.39708  1_554   S
    N62    C30       1.32607      .   S
    N62    N60       1.39695  1_454   S
    N65    C38       1.35621      .   S
    N57    C32       1.35647      .   S
    N56    C32       1.37377  1_565   S
    N64    C38       1.37393      .   S
    N79    H23       1.01844      .   S
    N79    H22       1.02727      .   S
    N55    H5        1.01838      .   S
    N55    H4        1.02656      .   S
    C36    H12       1.08447      .   S
    C30    H6        1.08451      .   S
    C38    N67       1.34451      .   S
    C32    N59       1.34447      .   S
    O81    C29       1.30308      .   S
    O93    C47       1.30326      .   S
    N67    H15       1.03180      .   S
    N67    H14       1.02731      .   S
    N59    H9        1.03208      .   S
    N59    H8        1.02727      .   S
    O91    C40       1.31686      .   S
    O87    C34       1.30525      .   S
    C29    O80       1.25707      .   S
    C47    O92       1.25708      .   S
    O90    C40       1.26319      .   S
    O86    C34       1.26282  1_545   S
    C28    O82       1.26294      .   S
    C28    O83       1.30531      .   S
    C46    O94       1.26278  1_545   S
    C46    O95       1.30525      .   S
    O84    C35       1.25719      .   S
    O88    C41       1.25708      .   S
    C35    O85       1.30313      .   S
    C41    O89       1.30314      .   S
    H20    N75       1.02736      .   S
    H2     N51       1.02732      .   S
    H21    N75       1.03208      .   S
    H3     N51       1.03214      .   S
    N75    C44       1.34433      .   S
    N51    C26       1.34436      .   S
    H18    C42       1.08451      .   S
    H0     C24       1.08447      .   S
    H16    N71       1.02656      .   S
    H10    N63       1.02654      .   S
    C44    N72       1.37377  1_565   S
    C44    N73       1.35628      .   S
    C26    N48       1.37392      .   S
    C26    N49       1.35621      .   S
    C42    N78       1.32608      .   S
    C42    N77       1.35794      .   S
    C24    N54       1.32604      .   S
    C24    N53       1.35793      .   S
    H17    N71       1.01843      .   S
    H11    N63       1.01839      .   S
    N71    C37       1.36234      .   S
    N63    C31       1.36229      .   S
    N72    C45       1.35638      .   S
    N48    C27       1.35650      .   S
    N73    N74       1.39856  1_565   S
    N49    N50       1.39880      .   S
    C37    N68       1.34537      .   S
    C31    N60       1.34537      .   S
    C27    N50       1.32285      .   S
    C45    N74       1.32283      .   S
