# CIF file generated by openbabel 2.4.90, see http://openbabel.sf.net
data_I
_chemical_name_common ''
_cell_length_a 12.333
_cell_length_b 13.793
_cell_length_c 17.568
_cell_angle_alpha 90.008
_cell_angle_beta 93.554
_cell_angle_gamma 89.971
_space_group_name_H-M_alt 'P 1'
_space_group_name_Hall 'P 1'
loop_
    _symmetry_equiv_pos_as_xyz
    x,y,z
loop_
    _atom_site_label
    _atom_site_type_symbol
    _atom_site_fract_x
    _atom_site_fract_y
    _atom_site_fract_z
    _atom_site_occupancy
    Zr0     Zr   0.43487   0.47498   0.90345   1.000
    Zr1     Zr   0.46231   0.90504   0.92621   1.000
    Zr2     Zr   0.06511   0.97500   0.09653   1.000
    Zr3     Zr   0.03769   0.40500   0.07374   1.000
    Zr4     Zr   0.56508   0.52505   0.09650   1.000
    Zr5     Zr   0.53765   0.09498   0.07376   1.000
    Zr6     Zr   0.93484   0.02503   0.90344   1.000
    Zr7     Zr   0.96227   0.59502   0.92620   1.000
    Zr8     Zr   0.46556   0.69668   0.84206   1.000
    Zr9     Zr   0.27735   0.38919   0.02326   1.000
    Zr10    Zr   0.25944   0.57971   0.79541   1.000
    Zr11    Zr   0.12029   0.61218   0.80143   1.000
    Zr12    Zr   0.52751   0.72922   0.13791   1.000
    Zr13    Zr   0.50149   0.83850   0.09163   1.000
    Zr14    Zr   0.03433   0.19667   0.15795   1.000
    Zr15    Zr   0.22263   0.88954   0.97657   1.000
    Zr16    Zr   0.24052   0.07958   0.20471   1.000
    Zr17    Zr   0.37965   0.11207   0.19868   1.000
    Zr18    Zr   0.97227   0.22917   0.86211   1.000
    Zr19    Zr   0.99836   0.33842   0.90839   1.000
    Zr20    Zr   0.53439   0.30335   0.15792   1.000
    Zr21    Zr   0.72260   0.61084   0.97671   1.000
    Zr22    Zr   0.74051   0.42031   0.20457   1.000
    Zr23    Zr   0.87967   0.38784   0.19850   1.000
    Zr24    Zr   0.47244   0.27081   0.86207   1.000
    Zr25    Zr   0.49846   0.16153   0.90830   1.000
    Zr26    Zr   0.96562   0.80335   0.84203   1.000
    Zr27    Zr   0.77732   0.11049   0.02340   1.000
    Zr28    Zr   0.75943   0.92044   0.79526   1.000
    Zr29    Zr   0.62031   0.88795   0.80130   1.000
    Zr30    Zr   0.02769   0.77085   0.13787   1.000
    Zr31    Zr   0.00160   0.66160   0.09159   1.000
    Zr32    Zr   0.48174   0.68883   0.90313   1.000
    Zr33    Zr   0.51109   0.72121   0.02252   1.000
    Zr34    Zr   0.18731   0.52952   0.88814   1.000
    Zr35    Zr   0.23126   0.43478   0.98270   1.000
    Zr36    Zr   0.43418   0.45676   0.75386   1.000
    Zr37    Zr   0.11912   0.37040   0.21991   1.000
    Zr38    Zr   0.01813   0.18882   0.09688   1.000
    Zr39    Zr   0.98872   0.22118   0.97749   1.000
    Zr40    Zr   0.31266   0.02954   0.11189   1.000
    Zr41    Zr   0.26872   0.93504   0.01720   1.000
    Zr42    Zr   0.06585   0.95667   0.24611   1.000
    Zr43    Zr   0.38089   0.87039   0.78005   1.000
    Zr44    Zr   0.51821   0.31120   0.09685   1.000
    Zr45    Zr   0.48886   0.27881   0.97746   1.000
    Zr46    Zr   0.81265   0.47050   0.11183   1.000
    Zr47    Zr   0.76869   0.56524   0.01728   1.000
    Zr48    Zr   0.56576   0.54326   0.24611   1.000
    Zr49    Zr   0.88084   0.62963   0.78007   1.000
    Zr50    Zr   0.98183   0.81121   0.90310   1.000
    Zr51    Zr   0.01124   0.77885   0.02249   1.000
    Zr52    Zr   0.68730   0.97049   0.88808   1.000
    Zr53    Zr   0.73124   0.06498   0.98277   1.000
    Zr54    Zr   0.93410   0.04335   0.75387   1.000
    Zr55    Zr   0.61906   0.12963   0.21993   1.000
    Zr56    Zr   0.27310   0.47852   0.92190   1.000
    Zr57    Zr   0.09683   0.51561   0.92687   1.000
    Zr58    Zr   0.12711   0.45471   0.98822   1.000
    Zr59    Zr   0.19272   0.58766   0.82708   1.000
    Zr60    Zr   0.51220   0.62404   0.01597   1.000
    Zr61    Zr   0.49249   0.76417   0.95278   1.000
    Zr62    Zr   0.49388   0.60409   0.93828   1.000
    Zr63    Zr   0.53182   0.76995   0.08929   1.000
    Zr64    Zr   0.22688   0.97866   0.07807   1.000
    Zr65    Zr   0.40313   0.01567   0.07310   1.000
    Zr66    Zr   0.37285   0.95495   0.01169   1.000
    Zr67    Zr   0.30723   0.08754   0.17305   1.000
    Zr68    Zr   0.98756   0.12401   0.98404   1.000
    Zr69    Zr   0.00740   0.26416   0.04723   1.000
    Zr70    Zr   0.00594   0.10408   0.06173   1.000
    Zr71    Zr   0.96798   0.26992   0.91073   1.000
    Zr72    Zr   0.72686   0.52150   0.07807   1.000
    Zr73    Zr   0.90312   0.48442   0.07310   1.000
    Zr74    Zr   0.87284   0.54531   0.01176   1.000
    Zr75    Zr   0.80723   0.41236   0.17290   1.000
    Zr76    Zr   0.48775   0.37599   0.98400   1.000
    Zr77    Zr   0.50746   0.23585   0.04720   1.000
    Zr78    Zr   0.50608   0.39593   0.06170   1.000
    Zr79    Zr   0.46813   0.23008   0.91069   1.000
    Zr80    Zr   0.77307   0.02136   0.92190   1.000
    Zr81    Zr   0.59682   0.98435   0.92685   1.000
    Zr82    Zr   0.62711   0.04507   0.98829   1.000
    Zr83    Zr   0.69272   0.91248   0.82693   1.000
    Zr84    Zr   0.01239   0.87601   0.01594   1.000
    Zr85    Zr   0.99255   0.73587   0.95275   1.000
    Zr86    Zr   0.99401   0.89594   0.93825   1.000
    Zr87    Zr   0.03198   0.73010   0.08920   1.000
    Zr88    Zr   0.02168   0.34994   0.22983   1.000
    Zr89    Zr   0.15231   0.40403   0.15607   1.000
    Zr90    Zr   0.39822   0.54066   0.76630   1.000
    Zr91    Zr   0.46817   0.40041   0.81008   1.000
    Zr92    Zr   0.47835   0.84994   0.77010   1.000
    Zr93    Zr   0.34766   0.90406   0.84389   1.000
    Zr94    Zr   0.10175   0.04053   0.23362   1.000
    Zr95    Zr   0.03185   0.90038   0.18987   1.000
    Zr96    Zr   0.97827   0.65008   0.77014   1.000
    Zr97    Zr   0.84764   0.59598   0.84391   1.000
    Zr98    Zr   0.60174   0.45937   0.23360   1.000
    Zr99    Zr   0.53179   0.59962   0.18900   1.000
    Zr100   Zr   0.52160   0.15008   0.22984   1.000
    Zr101   Zr   0.65229   0.09597   0.15608   1.000
    Zr102   Zr   0.89821   0.95949   0.76635   1.000
    Zr103   Zr   0.96810   0.09965   0.81011   1.000
    O104    O    0.32078   0.94500   0.01445   1.000
    O105    O    0.38799   0.98531   0.04240   1.000
    O106    O    0.41758   0.93000   0.96895   1.000
    O107    O    0.82077   0.55528   0.01452   1.000
    O108    O    0.88798   0.51486   0.04243   1.000
    O109    O    0.91756   0.57017   0.96898   1.000
    O110    O    0.01182   0.82743   0.01921   1.000
    O111    O    0.03875   0.92551   0.05624   1.000
    O112    O    0.00320   0.88598   0.97710   1.000
    O113    O    0.51165   0.67263   0.01925   1.000
    O114    O    0.53864   0.57454   0.05624   1.000
    O115    O    0.50304   0.61406   0.97713   1.000
    O116    O    0.24780   0.95685   0.04764   1.000
    O117    O    0.24568   0.91229   0.99689   1.000
    O118    O    0.74777   0.54337   0.04768   1.000
    O119    O    0.74565   0.58804   0.99699   1.000
    O120    O    0.02161   0.75447   0.05585   1.000
    O121    O    0.00190   0.75736   0.98762   1.000
    O122    O    0.52146   0.74558   0.05590   1.000
    O123    O    0.50179   0.74269   0.98765   1.000
    O124    O    0.25431   0.41198   0.00298   1.000
    O125    O    0.75428   0.08773   0.00309   1.000
    O126    O    0.52256   0.16542   0.06048   1.000
    O127    O    0.51284   0.27352   0.07203   1.000
    O128    O    0.49816   0.25733   0.01233   1.000
    O129    O    0.02254   0.33458   0.06049   1.000
    O130    O    0.01276   0.22649   0.07206   1.000
    O131    O    0.99806   0.24267   0.01236   1.000
    O132    O    0.53558   0.46049   0.07910   1.000
    O133    O    0.51214   0.35357   0.07928   1.000
    O134    O    0.49691   0.38596   0.02285   1.000
    O135    O    0.03552   0.03954   0.07913   1.000
    O136    O    0.01203   0.14645   0.07931   1.000
    O137    O    0.99675   0.11404   0.02288   1.000
    O138    O    0.97041   0.44471   0.07342   1.000
    O139    O    0.85789   0.47746   0.09247   1.000
    O140    O    0.47039   0.05533   0.07343   1.000
    O141    O    0.35789   0.02260   0.09250   1.000
    O142    O    0.09500   0.40452   0.11490   1.000
    O143    O    0.08240   0.42986   0.03098   1.000
    O144    O    0.59497   0.09547   0.11492   1.000
    O145    O    0.58238   0.07003   0.03103   1.000
    O146    O    0.14599   0.97683   0.08730   1.000
    O147    O    0.26977   0.00410   0.09498   1.000
    O148    O    0.64597   0.52327   0.08729   1.000
    O149    O    0.76975   0.49600   0.09495   1.000
    O150    O    0.01679   0.69585   0.09040   1.000
    O151    O    0.02984   0.75048   0.11353   1.000
    O152    O    0.51666   0.80422   0.09046   1.000
    O153    O    0.52967   0.74958   0.11360   1.000
    O154    O    0.54844   0.56233   0.14275   1.000
    O155    O    0.04848   0.93769   0.14320   1.000
    O156    O    0.52630   0.30727   0.12738   1.000
    O157    O    0.02623   0.19275   0.12742   1.000
    O158    O    0.80994   0.44143   0.14237   1.000
    O159    O    0.30995   0.05854   0.14247   1.000
    O160    O    0.13571   0.38722   0.18799   1.000
    O161    O    0.63568   0.11280   0.18801   1.000
    O162    O    0.84345   0.40010   0.18570   1.000
    O163    O    0.77387   0.41634   0.18874   1.000
    O164    O    0.34344   0.09981   0.18587   1.000
    O165    O    0.27388   0.08356   0.18888   1.000
    O166    O    0.54878   0.57144   0.21756   1.000
    O167    O    0.04885   0.92852   0.21799   1.000
    O168    O    0.07040   0.36017   0.22487   1.000
    O169    O    0.57033   0.13986   0.22489   1.000
    O170    O    0.58375   0.50132   0.23986   1.000
    O171    O    0.08380   0.99860   0.23987   1.000
    O172    O    0.41620   0.49871   0.76008   1.000
    O173    O    0.45117   0.42858   0.78197   1.000
    O174    O    0.91615   0.00142   0.76011   1.000
    O175    O    0.95110   0.07150   0.78199   1.000
    O176    O    0.42962   0.86017   0.77508   1.000
    O177    O    0.92955   0.63986   0.77511   1.000
    O178    O    0.36428   0.88723   0.81197   1.000
    O179    O    0.86424   0.61281   0.81199   1.000
    O180    O    0.72608   0.91646   0.81110   1.000
    O181    O    0.22608   0.58368   0.81125   1.000
    O182    O    0.65651   0.90022   0.81412   1.000
    O183    O    0.15650   0.59992   0.81426   1.000
    O184    O    0.45152   0.43769   0.85676   1.000
    O185    O    0.95147   0.06234   0.85678   1.000
    O186    O    0.69001   0.94148   0.85751   1.000
    O187    O    0.19001   0.55859   0.85761   1.000
    O188    O    0.97372   0.80728   0.87257   1.000
    O189    O    0.47365   0.69275   0.87260   1.000
    O190    O    0.40498   0.90455   0.88505   1.000
    O191    O    0.90496   0.59550   0.88506   1.000
    O192    O    0.47028   0.25044   0.88638   1.000
    O193    O    0.97012   0.24955   0.88642   1.000
    O194    O    0.73019   0.99592   0.90499   1.000
    O195    O    0.64206   0.97742   0.90747   1.000
    O196    O    0.23020   0.50402   0.90502   1.000
    O197    O    0.14207   0.52257   0.90751   1.000
    O198    O    0.98792   0.85358   0.92068   1.000
    O199    O    0.98719   0.77354   0.92793   1.000
    O200    O    0.48781   0.64646   0.92071   1.000
    O201    O    0.48712   0.72650   0.92796   1.000
    O202    O    0.85396   0.02319   0.91267   1.000
    O203    O    0.96443   0.96049   0.92085   1.000
    O204    O    0.96120   0.07452   0.94374   1.000
    O205    O    0.35398   0.47675   0.91268   1.000
    O206    O    0.46437   0.53953   0.92087   1.000
    O207    O    0.46131   0.42548   0.94373   1.000
    O208    O    0.48329   0.19580   0.90950   1.000
    O209    O    0.98317   0.30417   0.90956   1.000
    O210    O    0.47849   0.25444   0.94408   1.000
    O211    O    0.97835   0.24555   0.94411   1.000
    O212    O    0.75215   0.04317   0.95233   1.000
    O213    O    0.25218   0.45665   0.95230   1.000
    O214    O    0.02955   0.55532   0.92653   1.000
    O215    O    0.97741   0.66544   0.93947   1.000
    O216    O    0.52957   0.94470   0.92653   1.000
    O217    O    0.47740   0.83461   0.93950   1.000
    O218    O    0.61197   0.01471   0.95757   1.000
    O219    O    0.11197   0.48516   0.95754   1.000
    O220    O    0.48830   0.32740   0.98073   1.000
    O221    O    0.98814   0.17259   0.98076   1.000
    O222    O    0.17918   0.44474   0.98546   1.000
    O223    O    0.67917   0.05503   0.98553   1.000
    N224    N    0.13226   0.85847   0.53034   1.000
    O225    O    0.23500   0.86049   0.63964   1.000
    O226    O    0.09788   0.89807   0.40792   1.000
    N227    N    0.63214   0.64148   0.53037   1.000
    O228    O    0.73491   0.63949   0.63966   1.000
    O229    O    0.59776   0.60186   0.40794   1.000
    N230    N    0.86769   0.14155   0.46961   1.000
    O231    O    0.90207   0.10195   0.59202   1.000
    O232    O    0.76495   0.13953   0.36033   1.000
    N233    N    0.36781   0.35854   0.46959   1.000
    O234    O    0.26504   0.36054   0.36031   1.000
    O235    O    0.40219   0.39816   0.59203   1.000
loop_
    _geom_bond_atom_site_label_1
    _geom_bond_atom_site_label_2
    _geom_bond_distance
    _geom_bond_site_symmetry_2
    _ccdc_geom_bond_type
    Zr66   O104      0.66141      .   S
    Zr41   O104      0.66141      .   S
    Zr66   O105      0.69909      .   S
    Zr65   O105      0.69909  1_545   S
    Zr66   O106      1.01867  1_554   S
    Zr1    O106      1.01867      .   S
    Zr74   O107      0.66143      .   S
    Zr47   O107      0.66143      .   S
    Zr74   O108      0.69933      .   S
    Zr73   O108      0.69933      .   S
    Zr74   O109      1.01888  1_554   S
    Zr7    O109      1.01888      .   S
    Zr84   O110      0.67268      .   S
    Zr51   O110      0.67268      .   S
    Zr84   O111      1.02194      .   S
    Zr2    O111      1.02194      .   S
    Zr84   O112      0.69848  1_554   S
    Zr86   O112      0.69848  1_655   S
    Zr60   O113      0.67269      .   S
    Zr33   O113      0.67269      .   S
    Zr60   O114      1.02181      .   S
    Zr4    O114      1.02181      .   S
    Zr60   O115      0.69845  1_554   S
    Zr62   O115      0.69845      .   S
    Zr41   O116      0.67819      .   S
    Zr64   O116      0.67819      .   S
    Zr41   O117      0.54229  1_554   S
    Zr15   O117      0.54229      .   S
    Zr47   O118      0.67818      .   S
    Zr72   O118      0.67818      .   S
    Zr47   O119      0.54225  1_554   S
    Zr21   O119      0.54225      .   S
    Zr51   O120      0.68077      .   S
    Zr87   O120      0.68077      .   S
    Zr51   O121      0.68384  1_554   S
    Zr85   O121      0.68384  1_655   S
    Zr33   O122      0.68117      .   S
    Zr63   O122      0.68117      .   S
    Zr33   O123      0.68375  1_554   S
    Zr61   O123      0.68375      .   S
    Zr9    O124      0.54219      .   S
    Zr35   O124      0.54219  1_556   S
    Zr27   O125      0.54229      .   S
    Zr53   O125      0.54229  1_556   S
    Zr77   O126      1.01358      .   S
    Zr5    O126      1.01358      .   S
    Zr77   O127      0.67897      .   S
    Zr44   O127      0.67897      .   S
    Zr77   O128      0.68375      .   S
    Zr45   O128      0.68375  1_556   S
    Zr69   O129      1.01357      .   S
    Zr3    O129      1.01357      .   S
    Zr69   O130      0.67896      .   S
    Zr38   O130      0.67896      .   S
    Zr69   O131      0.68384  1_455   S
    Zr39   O131      0.68384  1_556   S
    Zr78   O132      1.00258      .   S
    Zr4    O132      1.00258      .   S
    Zr78   O133      0.66301      .   S
    Zr44   O133      0.66301      .   S
    Zr78   O134      0.69854      .   S
    Zr76   O134      0.69854  1_556   S
    Zr70   O135      1.00248      .   S
    Zr2    O135      1.00248  1_565   S
    Zr70   O136      0.66303      .   S
    Zr38   O136      0.66303      .   S
    Zr70   O137      0.69847  1_455   S
    Zr68   O137      0.69847  1_556   S
    Zr73   O138      0.99371      .   S
    Zr3    O138      0.99371  1_455   S
    Zr73   O139      0.67811      .   S
    Zr46   O139      0.67811      .   S
    Zr65   O140      0.99356      .   S
    Zr5    O140      0.99356      .   S
    Zr65   O141      0.67823      .   S
    Zr40   O141      0.67823      .   S
    Zr3    O142      0.97944      .   S
    Zr89   O142      0.97944      .   S
    Zr3    O143      1.01860      .   S
    Zr58   O143      1.01860  1_556   S
    Zr5    O144      0.97946      .   S
    Zr101  O144      0.97946      .   S
    Zr5    O145      1.01860      .   S
    Zr82   O145      1.01860  1_556   S
    Zr64   O146      1.02085      .   S
    Zr2    O146      1.02085      .   S
    Zr64   O147      0.68688  1_565   S
    Zr40   O147      0.68688      .   S
    Zr72   O148      1.02075      .   S
    Zr4    O148      1.02075      .   S
    Zr72   O149      0.68696      .   S
    Zr46   O149      0.68696      .   S
    Zr87   O150      0.50922      .   S
    Zr31   O150      0.50922      .   S
    Zr87   O151      0.51364      .   S
    Zr30   O151      0.51364      .   S
    Zr63   O152      0.50919      .   S
    Zr13   O152      0.50919      .   S
    Zr63   O153      0.51328      .   S
    Zr12   O153      0.51328      .   S
    Zr4    O154      0.99362      .   S
    Zr99   O154      0.99362      .   S
    Zr2    O155      1.00010      .   S
    Zr95   O155      1.00010      .   S
    Zr44   O156      0.54224      .   S
    Zr20   O156      0.54224      .   S
    Zr38   O157      0.54226      .   S
    Zr14   O157      0.54226      .   S
    Zr46   O158      0.67225      .   S
    Zr75   O158      0.67225      .   S
    Zr40   O159      0.67224      .   S
    Zr67   O159      0.67224      .   S
    Zr89   O160      0.65154      .   S
    Zr37   O160      0.65154      .   S
    Zr101  O161      0.65163      .   S
    Zr55   O161      0.65163      .   S
    Zr75   O162      0.51590      .   S
    Zr23   O162      0.51590      .   S
    Zr75   O163      0.51366      .   S
    Zr22   O163      0.51366      .   S
    Zr67   O164      0.51604      .   S
    Zr17   O164      0.51604      .   S
    Zr67   O165      0.51363      .   S
    Zr16   O165      0.51363      .   S
    Zr99   O166      0.65843      .   S
    Zr48   O166      0.65843      .   S
    Zr95   O167      0.65263      .   S
    Zr42   O167      0.65263      .   S
    Zr37   O168      0.62854      .   S
    Zr88   O168      0.62854      .   S
    Zr55   O169      0.62854      .   S
    Zr100  O169      0.62854      .   S
    Zr98   O170      0.63160      .   S
    Zr48   O170      0.63160      .   S
    Zr94   O171      0.63141  1_545   S
    Zr42   O171      0.63141      .   S
    Zr36   O172      0.63147      .   S
    Zr90   O172      0.63147      .   S
    Zr36   O173      0.65265      .   S
    Zr91   O173      0.65265      .   S
    Zr54   O174      0.63139      .   S
    Zr102  O174      0.63139  1_565   S
    Zr54   O175      0.65262      .   S
    Zr103  O175      0.65262      .   S
    Zr92   O176      0.62860      .   S
    Zr43   O176      0.62860      .   S
    Zr96   O177      0.62854      .   S
    Zr49   O177      0.62854      .   S
    Zr43   O178      0.65157      .   S
    Zr93   O178      0.65157      .   S
    Zr49   O179      0.65157      .   S
    Zr97   O179      0.65157      .   S
    Zr28   O180      0.51368      .   S
    Zr83   O180      0.51368      .   S
    Zr10   O181      0.51366      .   S
    Zr59   O181      0.51366      .   S
    Zr29   O182      0.51604      .   S
    Zr83   O182      0.51604      .   S
    Zr11   O183      0.51607      .   S
    Zr59   O183      0.51607      .   S
    Zr91   O184      0.99997      .   S
    Zr0    O184      0.99997      .   S
    Zr103  O185      1.00003      .   S
    Zr6    O185      1.00003      .   S
    Zr83   O186      0.67216      .   S
    Zr52   O186      0.67216      .   S
    Zr59   O187      0.67218      .   S
    Zr34   O187      0.67218      .   S
    Zr26   O188      0.54226      .   S
    Zr50   O188      0.54226      .   S
    Zr8    O189      0.54224      .   S
    Zr32   O189      0.54224      .   S
    Zr93   O190      0.97946      .   S
    Zr1    O190      0.97946      .   S
    Zr97   O191      0.97919      .   S
    Zr7    O191      0.97919      .   S
    Zr24   O192      0.51328      .   S
    Zr79   O192      0.51328      .   S
    Zr18   O193      0.51327      .   S
    Zr71   O193      0.51327      .   S
    Zr52   O194      0.68688      .   S
    Zr80   O194      0.68688  1_545   S
    Zr52   O195      0.67814      .   S
    Zr81   O195      0.67814      .   S
    Zr34   O196      0.68696      .   S
    Zr56   O196      0.68696      .   S
    Zr34   O197      0.67811      .   S
    Zr57   O197      0.67811      .   S
    Zr50   O198      0.66304      .   S
    Zr86   O198      0.66304      .   S
    Zr50   O199      0.67897      .   S
    Zr85   O199      0.67897      .   S
    Zr32   O200      0.66302      .   S
    Zr62   O200      0.66302      .   S
    Zr32   O201      0.67896      .   S
    Zr61   O201      0.67896      .   S
    Zr6    O202      1.02084      .   S
    Zr80   O202      1.02084      .   S
    Zr6    O203      1.00250  1_545   S
    Zr86   O203      1.00250      .   S
    Zr6    O204      1.02200      .   S
    Zr68   O204      1.02200      .   S
    Zr0    O205      1.02079      .   S
    Zr56   O205      1.02079      .   S
    Zr0    O206      1.00266      .   S
    Zr62   O206      1.00266      .   S
    Zr0    O207      1.02192      .   S
    Zr76   O207      1.02192      .   S
    Zr25   O208      0.50922      .   S
    Zr79   O208      0.50922      .   S
    Zr19   O209      0.50919      .   S
    Zr71   O209      0.50919      .   S
    Zr79   O210      0.68117      .   S
    Zr45   O210      0.68117      .   S
    Zr71   O211      0.68114      .   S
    Zr39   O211      0.68114      .   S
    Zr80   O212      0.67819      .   S
    Zr53   O212      0.67819      .   S
    Zr56   O213      0.67825      .   S
    Zr35   O213      0.67825      .   S
    Zr7    O214      0.99370  1_655   S
    Zr57   O214      0.99370      .   S
    Zr7    O215      1.01363      .   S
    Zr85   O215      1.01363      .   S
    Zr1    O216      0.99357      .   S
    Zr81   O216      0.99357      .   S
    Zr1    O217      1.01360      .   S
    Zr61   O217      1.01360      .   S
    Zr81   O218      0.69928  1_565   S
    Zr82   O218      0.69928      .   S
    Zr57   O219      0.69940      .   S
    Zr58   O219      0.69940      .   S
    Zr45   O220      0.67268      .   S
    Zr76   O220      0.67268      .   S
    Zr39   O221      0.67269      .   S
    Zr68   O221      0.67269      .   S
    Zr35   O222      0.66143      .   S
    Zr58   O222      0.66143      .   S
    Zr53   O223      0.66142      .   S
    Zr82   O223      0.66142      .   S
    N224   O225      2.23419      .   S
    Zr43   O225      2.96492      .   S
    N224   O226      2.23396      .   S
    Zr42   O226      2.95824      .   S
    N227   O228      2.23425      .   S
    Zr49   O228      2.96500      .   S
    N227   O229      2.23417      .   S
    Zr48   O229      2.95848      .   S
    N230   O231      2.23382      .   S
    Zr54   O231      2.95887      .   S
    N230   O232      2.23400      .   S
    Zr55   O232      2.96474      .   S
    N233   O234      2.23417      .   S
    Zr37   O234      2.96491      .   S
    N233   O235      2.23423      .   S
    Zr36   O235      2.95846      .   S
