# CIF file generated by openbabel 2.4.90, see http://openbabel.sf.net
data_I
_chemical_name_common ''
_cell_length_a 12.333
_cell_length_b 13.793
_cell_length_c 17.568
_cell_angle_alpha 90.008
_cell_angle_beta 93.554
_cell_angle_gamma 89.971
_space_group_name_H-M_alt 'P 1'
_space_group_name_Hall 'P 1'
loop_
    _symmetry_equiv_pos_as_xyz
    x,y,z
loop_
    _atom_site_label
    _atom_site_type_symbol
    _atom_site_fract_x
    _atom_site_fract_y
    _atom_site_fract_z
    _atom_site_occupancy
    Zr0     Zr   0.43487   0.47498   0.90345   1.000
    Zr1     Zr   0.46231   0.90504   0.92621   1.000
    Zr2     Zr   0.06511   0.97500   0.09653   1.000
    Zr3     Zr   0.03769   0.40500   0.07374   1.000
    Zr4     Zr   0.56508   0.52505   0.09650   1.000
    Zr5     Zr   0.53765   0.09498   0.07376   1.000
    Zr6     Zr   0.93484   0.02503   0.90344   1.000
    Zr7     Zr   0.96227   0.59502   0.92620   1.000
    N8      N    0.13226   0.85847   0.53034   1.000
    N9      N    0.63214   0.64148   0.53037   1.000
    N10     N    0.86769   0.14155   0.46961   1.000
    N11     N    0.36781   0.35854   0.46959   1.000
    C12     C    0.49797   0.28484   0.00069   1.000
    O13     O    0.51026   0.22513   0.03058   1.000
    O14     O    0.51678   0.37266   0.03989   1.000
    O15     O    0.47964   0.35516   0.97221   1.000
    C16     C    0.99785   0.21516   0.00073   1.000
    O17     O    0.01669   0.12735   0.03993   1.000
    O18     O    0.01020   0.27487   0.03061   1.000
    O19     O    0.97953   0.14484   0.97223   1.000
    C20     C    0.56643   0.53408   0.22290   1.000
    O21     O    0.55743   0.54821   0.18283   1.000
    O22     O    0.58210   0.56797   0.31542   1.000
    C23     C    0.69615   0.99085   0.90609   1.000
    O24     O    0.77505   0.00702   0.90938   1.000
    O25     O    0.61286   0.96777   0.91631   1.000
    O26     O    0.63926   0.03044   0.96856   1.000
    C27     C    0.90225   0.62523   0.79804   1.000
    O28     O    0.90360   0.61037   0.84155   1.000
    O29     O    0.81858   0.63236   0.71885   1.000
    C30     C    0.30381   0.00918   0.09388   1.000
    O31     O    0.22490   0.99300   0.09059   1.000
    O32     O    0.36069   0.96959   0.03142   1.000
    O33     O    0.38710   0.03225   0.08366   1.000
    C34     C    0.43352   0.46594   0.77675   1.000
    O35     O    0.44252   0.45182   0.81676   1.000
    O36     O    0.41786   0.43205   0.68439   1.000
    C37     C    0.80380   0.49093   0.09386   1.000
    O38     O    0.86068   0.53055   0.03142   1.000
    O39     O    0.72488   0.50710   0.09057   1.000
    O40     O    0.88710   0.46782   0.08364   1.000
    C41     C    0.09770   0.37479   0.20194   1.000
    O42     O    0.18137   0.36766   0.28112   1.000
    O43     O    0.09635   0.38965   0.15842   1.000
    C44     C    0.40230   0.87480   0.79801   1.000
    O45     O    0.40364   0.88968   0.84153   1.000
    O46     O    0.31865   0.86765   0.71883   1.000
    C47     C    0.06648   0.96586   0.22320   1.000
    O48     O    0.05748   0.95177   0.18320   1.000
    O49     O    0.08218   0.93197   0.31556   1.000
    C50     C    0.50198   0.71519   0.99929   1.000
    O51     O    0.48969   0.77490   0.96939   1.000
    O52     O    0.48318   0.62736   0.96008   1.000
    O53     O    0.52031   0.64486   0.02776   1.000
    C54     C    0.00210   0.78486   0.99925   1.000
    O55     O    0.98326   0.87268   0.96005   1.000
    O56     O    0.02043   0.85519   0.02774   1.000
    O57     O    0.98976   0.72515   0.96936   1.000
    C58     C    0.19615   0.50910   0.90611   1.000
    O59     O    0.11285   0.53221   0.91632   1.000
    O60     O    0.13928   0.46948   0.96855   1.000
    O61     O    0.27507   0.49292   0.90939   1.000
    C62     C    0.59765   0.12523   0.20195   1.000
    O63     O    0.59631   0.11035   0.15844   1.000
    O64     O    0.68130   0.13238   0.28114   1.000
    C65     C    0.93347   0.03416   0.77678   1.000
    O66     O    0.94247   0.04825   0.81678   1.000
    O67     O    0.91777   0.06806   0.68440   1.000
loop_
    _geom_bond_atom_site_label_1
    _geom_bond_atom_site_label_2
    _geom_bond_distance
    _geom_bond_site_symmetry_2
    _ccdc_geom_bond_type
    C12    O13       0.98348      .   S
    Zr5    O13       1.96969      .   S
    C12    O14       1.40567      .   S
    Zr4    O14       2.38512      .   S
    C12    O15       1.10823  1_554   S
    Zr0    O15       2.10051      .   S
    C16    O17       1.40545  1_655   S
    Zr2    O17       2.38471  1_565   S
    C16    O18       0.98341  1_655   S
    Zr3    O18       1.96958      .   S
    C16    O19       1.10837  1_554   S
    Zr6    O19       2.10074      .   S
    C20    O21       0.73233      .   S
    Zr4    O21       1.55838      .   S
    C20    O22       1.69075      .   S
    N9     O22       3.92169      .   S
    C23    O24       0.99668  1_565   S
    Zr6    O24       1.99555      .   S
    C23    O25       1.10088      .   S
    Zr1    O25       2.06593      .   S
    C23    O26       1.44558  1_565   S
    Zr5    O26       2.46265  1_554   S
    C27    O28       0.79056      .   S
    Zr7    O28       1.62681      .   S
    C27    O29       1.68279      .   S
    N9     O29       3.91441      .   S
    C30    O31       0.99668  1_545   S
    Zr2    O31       1.99556      .   S
    C30    O32       1.44555  1_545   S
    Zr1    O32       2.46270  1_556   S
    C30    O33       1.10090      .   S
    Zr5    O33       2.06592      .   S
    C34    O35       0.73120      .   S
    Zr0    O35       1.56469      .   S
    C34    O36       1.68807      .   S
    N11    O36       3.91908      .   S
    C37    O38       1.44566      .   S
    Zr7    O38       2.46300  1_556   S
    C37    O39       0.99656      .   S
    Zr4    O39       1.99529      .   S
    C37    O40       1.10084      .   S
    Zr3    O40       2.06599  1_455   S
    C41    O42       1.68277      .   S
    N11    O42       3.91430      .   S
    C41    O43       0.79070      .   S
    Zr3    O43       1.62726      .   S
    C44    O45       0.79074      .   S
    Zr1    O45       1.62728      .   S
    C44    O46       1.68271      .   S
    N8     O46       3.91426      .   S
    C47    O48       0.73089      .   S
    Zr2    O48       1.56453      .   S
    C47    O49       1.68819      .   S
    N8     O49       3.91893      .   S
    C50    O51       0.98347      .   S
    Zr1    O51       1.96971      .   S
    C50    O52       1.40571      .   S
    Zr0    O52       2.38525      .   S
    C50    O53       1.10818  1_556   S
    Zr4    O53       2.10035      .   S
    C54    O55       1.40545  1_455   S
    Zr6    O55       2.38475  1_545   S
    C54    O56       1.10837  1_556   S
    Zr2    O56       2.10070      .   S
    C54    O57       0.98348  1_455   S
    Zr7    O57       1.96975      .   S
    C58    O59       1.10081      .   S
    Zr7    O59       2.06593  1_655   S
    C58    O60       1.44559      .   S
    Zr3    O60       2.46265  1_554   S
    C58    O61       0.99656      .   S
    Zr0    O61       1.99532      .   S
    C62    O63       0.79068      .   S
    Zr5    O63       1.62723      .   S
    C62    O64       1.68273      .   S
    N10    O64       3.91409      .   S
    C65    O66       0.73088      .   S
    Zr6    O66       1.56443      .   S
    C65    O67       1.68847      .   S
    N10    O67       3.91908      .   S
