# CIF file generated by openbabel 2.4.90, see http://openbabel.sf.net
data_I
_chemical_name_common ''
_cell_length_a 15.743
_cell_length_b 15.75
_cell_length_c 20.005
_cell_angle_alpha 90.001
_cell_angle_beta 90
_cell_angle_gamma 90.008
_space_group_name_H-M_alt 'P 1'
_space_group_name_Hall 'P 1'
loop_
    _symmetry_equiv_pos_as_xyz
    x,y,z
loop_
    _atom_site_label
    _atom_site_type_symbol
    _atom_site_fract_x
    _atom_site_fract_y
    _atom_site_fract_z
    _atom_site_occupancy
    H0      H    0.56048   0.13118   0.34972   1.000
    H1      H    0.44129   0.20675   0.56081   1.000
    H2      H    0.66159   0.35524   0.61537   1.000
    H3      H    0.93665   0.36549   0.34938   1.000
    H4      H    0.05591   0.29007   0.56110   1.000
    H5      H    0.83608   0.14046   0.61497   1.000
    H6      H    0.86151   0.44133   0.64973   1.000
    H7      H    0.78890   0.55565   0.44013   1.000
    H8      H    0.64075   0.33557   0.38450   1.000
    H9      H    0.63614   0.05475   0.64950   1.000
    H10     H    0.70911   0.94068   0.43983   1.000
    H11     H    0.85637   0.16145   0.38443   1.000
    H12     H    0.43672   0.86544   0.65057   1.000
    H13     H    0.55589   0.79001   0.43890   1.000
    H14     H    0.33605   0.64047   0.38499   1.000
    H15     H    0.06047   0.63114   0.65026   1.000
    H16     H    0.94125   0.70675   0.43916   1.000
    H17     H    0.16162   0.85518   0.38458   1.000
    H18     H    0.13617   0.55468   0.35040   1.000
    H19     H    0.20907   0.44070   0.56013   1.000
    H20     H    0.35636   0.66141   0.61554   1.000
    H21     H    0.36165   0.94124   0.35023   1.000
    H22     H    0.28899   0.05567   0.55988   1.000
    H23     H    0.14074   0.83560   0.61537   1.000
    C24     C    0.19133   0.96851   0.60510   1.000
    C25     C    0.30641   0.52826   0.60525   1.000
    C26     C    0.51308   0.08315   0.36082   1.000
    C27     C    0.50399   0.23434   0.56716   1.000
    C28     C    0.61675   0.30860   0.59653   1.000
    C29     C    0.98415   0.41337   0.36062   1.000
    C30     C    0.99328   0.26220   0.56727   1.000
    C31     C    0.88076   0.18735   0.59627   1.000
    C32     C    0.91184   0.48638   0.63888   1.000
    C33     C    0.76138   0.49298   0.43352   1.000
    C34     C    0.68729   0.38034   0.40365   1.000
    C35     C    0.58566   0.00982   0.63885   1.000
    C36     C    0.73632   0.00353   0.43325   1.000
    C37     C    0.80998   0.11647   0.40345   1.000
    C38     C    0.46885   0.69170   0.39440   1.000
    C39     C    0.02861   0.80462   0.39447   1.000
    C40     C    0.80644   0.02829   0.39471   1.000
    C41     C    0.69130   0.46850   0.39487   1.000
    C42     C    0.48421   0.91334   0.63934   1.000
    C43     C    0.49327   0.76215   0.43272   1.000
    C44     C    0.38074   0.68733   0.40370   1.000
    C45     C    0.01305   0.58313   0.63915   1.000
    C46     C    0.00399   0.73433   0.43281   1.000
    C47     C    0.11677   0.80856   0.40343   1.000
    C48     C    0.08567   0.50978   0.36113   1.000
    C49     C    0.23629   0.50351   0.56670   1.000
    C50     C    0.30996   0.61644   0.59650   1.000
    C51     C    0.41194   0.98632   0.36108   1.000
    C52     C    0.26143   0.99298   0.56647   1.000
    C53     C    0.18729   0.88036   0.59629   1.000
    C54     C    0.52860   0.30464   0.60549   1.000
    C55     C    0.96886   0.19175   0.60550   1.000
    C56     C    0.45492   0.04249   0.31823   1.000
    C57     C    0.04260   0.45387   0.31810   1.000
    C58     C    0.95483   0.54251   0.68173   1.000
    C59     C    0.54261   0.95386   0.68182   1.000
    N60     N    0.50512   0.05356   0.42379   1.000
    N61     N    0.57254   0.19906   0.53743   1.000
    N62     N    0.64288   0.24533   0.55577   1.000
    N63     N    0.99205   0.44283   0.42364   1.000
    N64     N    0.92469   0.29716   0.53737   1.000
    N65     N    0.85449   0.25053   0.55548   1.000
    N66     N    0.94201   0.49326   0.57598   1.000
    N67     N    0.79654   0.42438   0.46322   1.000
    N68     N    0.75038   0.35411   0.44458   1.000
    N69     N    0.55533   0.00000   0.57599   1.000
    N70     N    0.70070   0.07197   0.46284   1.000
    N71     N    0.74662   0.14244   0.44424   1.000
    N72     N    0.49208   0.94280   0.57632   1.000
    N73     N    0.42469   0.79714   0.46261   1.000
    N74     N    0.35448   0.75052   0.44449   1.000
    N75     N    0.00000   0.55354   0.57618   1.000
    N76     N    0.07253   0.69905   0.46255   1.000
    N77     N    0.14288   0.74529   0.44420   1.000
    N78     N    0.05533   0.50290   0.42398   1.000
    N79     N    0.20067   0.57196   0.53713   1.000
    N80     N    0.24661   0.64242   0.55573   1.000
    N81     N    0.44210   0.99324   0.42398   1.000
    N82     N    0.29658   0.92439   0.53675   1.000
    N83     N    0.25038   0.85412   0.55537   1.000
loop_
    _geom_bond_atom_site_label_1
    _geom_bond_atom_site_label_2
    _geom_bond_distance
    _geom_bond_site_symmetry_2
    _ccdc_geom_bond_type
    C57    C29       1.40606  1_455   S
    C57    C48       1.40569      .   S
    C56    C26       1.40499      .   S
    C56    C51       1.40547  1_545   S
    H3     C29       1.08551      .   S
    H0     C26       1.08548      .   S
    H21    C51       1.08538      .   S
    H18    C48       1.08546      .   S
    C29    N63       1.34911      .   S
    C26    N60       1.34899      .   S
    C51    N81       1.34927      .   S
    C48    N78       1.34934      .   S
    H11    C37       1.08623      .   S
    H8     C34       1.08652      .   S
    H17    C47       1.08617      .   S
    H14    C44       1.08619      .   S
    C38    C44       1.40114      .   S
    C38    C43       1.40225      .   S
    C39    C47       1.40073      .   S
    C39    C46       1.40143      .   S
    C40    C37       1.40091      .   S
    C40    C36       1.40180      .   S
    C41    C34       1.40091      .   S
    C41    C33       1.40132      .   S
    C47    N77       1.35167      .   S
    C37    N71       1.35206      .   S
    C34    N68       1.35194      .   S
    C44    N74       1.35180      .   S
    N63    N78       1.37381  1_655   S
    N60    N81       1.37355  1_545   S
    C43    H13       1.08603      .   S
    C43    N73       1.35171      .   S
    C46    H16       1.08634  1_455   S
    C46    N76       1.35167      .   S
    C36    H10       1.08645  1_545   S
    C36    N70       1.35171      .   S
    C33    H7        1.08601      .   S
    C33    N67       1.35156      .   S
    N77    N76       1.37540      .   S
    N71    N70       1.37573      .   S
    N74    N73       1.37546      .   S
    N68    N67       1.37546      .   S
    N82    N83       1.37550      .   S
    N82    C52       1.35163      .   S
    N79    N80       1.37573      .   S
    N79    C49       1.35160      .   S
    N64    N65       1.37547      .   S
    N64    C30       1.35170      .   S
    N61    N62       1.37536      .   S
    N61    C27       1.35166      .   S
    N83    C53       1.35183      .   S
    N65    C31       1.35177      .   S
    N80    C50       1.35190      .   S
    N62    C28       1.35170      .   S
    H22    C52       1.08647  1_545   S
    H19    C49       1.08597      .   S
    H1     C27       1.08601      .   S
    H4     C30       1.08637  1_455   S
    C52    C24       1.40126      .   S
    C49    C25       1.40195      .   S
    C27    C54       1.40143      .   S
    C30    C55       1.40131      .   S
    N66    N75       1.31704  1_655   S
    N66    C32       1.34931      .   S
    N69    N72       1.34273  1_545   S
    N69    C35       1.35397      .   S
    N75    C45       1.35878      .   S
    N72    C42       1.34912      .   S
    C31    C55       1.40093      .   S
    C31    H5        1.08618      .   S
    C53    C24       1.40092      .   S
    C53    H23       1.08615      .   S
    C50    C25       1.40093      .   S
    C50    H20       1.08637      .   S
    C28    C54       1.40073      .   S
    C28    H2        1.08614      .   S
    C35    H9        1.08511      .   S
    C35    C59       1.40536  1_545   S
    C32    H6        1.08542      .   S
    C32    C58       1.40509      .   S
    C45    H15       1.08549      .   S
    C45    C58       1.40521  1_455   S
    C42    H12       1.08549      .   S
    C42    C59       1.40523      .   S
