# CIF file generated by openbabel 2.4.90, see http://openbabel.sf.net
data_I
_chemical_name_common ''
_cell_length_a 15.743
_cell_length_b 15.75
_cell_length_c 20.005
_cell_angle_alpha 90.001
_cell_angle_beta 90
_cell_angle_gamma 90.008
_space_group_name_H-M_alt 'P 1'
_space_group_name_Hall 'P 1'
loop_
    _symmetry_equiv_pos_as_xyz
    x,y,z
loop_
    _atom_site_label
    _atom_site_type_symbol
    _atom_site_fract_x
    _atom_site_fract_y
    _atom_site_fract_z
    _atom_site_occupancy
    Zr0     Zr   0.24866   0.74805   0.60000   1.000
    Zr1     Zr   0.74843   0.24812   0.49995   1.000
    Zr2     Zr   0.74865   0.24808   0.99992   1.000
    Zr3     Zr   0.24843   0.74811   0.50002   1.000
    Zr4     Zr   0.08344   0.91516   0.99996   1.000
    Zr5     Zr   0.41500   0.58124   0.99999   1.000
    Zr6     Zr   0.58231   0.08127   0.50004   1.000
    Zr7     Zr   0.91475   0.41497   0.50003   1.000
    Zr8     Zr   0.91499   0.08125   0.99999   1.000
    Zr9     Zr   0.58333   0.41517   0.20000   1.000
    Zr10    Zr   0.41478   0.91495   0.49994   1.000
    Zr11    Zr   0.08228   0.58125   0.49993   1.000
    Zr12    Zr   0.13669   0.94172   0.85036   1.000
    Zr13    Zr   0.56048   0.13118   0.34972   1.000
    Zr14    Zr   0.44129   0.20675   0.56081   1.000
    Zr15    Zr   0.66159   0.35524   0.61537   1.000
    Zr16    Zr   0.93665   0.36549   0.34938   1.000
    Zr17    Zr   0.05591   0.29007   0.56110   1.000
    Zr18    Zr   0.83608   0.14046   0.61497   1.000
    Zr19    Zr   0.86151   0.44133   0.64973   1.000
    Zr20    Zr   0.78890   0.55565   0.44013   1.000
    Zr21    Zr   0.64075   0.33557   0.38450   1.000
    Zr22    Zr   0.63614   0.05475   0.64950   1.000
    Zr23    Zr   0.70911   0.94068   0.43983   1.000
    Zr24    Zr   0.85637   0.16145   0.38443   1.000
    Zr25    Zr   0.06169   0.86604   0.15072   1.000
    Zr26    Zr   0.86223   0.05526   0.14960   1.000
    Zr27    Zr   0.78890   0.94049   0.93998   1.000
    Zr28    Zr   0.64127   0.16084   0.88429   1.000
    Zr29    Zr   0.43672   0.86544   0.65057   1.000
    Zr30    Zr   0.55589   0.79001   0.43890   1.000
    Zr31    Zr   0.33605   0.64047   0.38499   1.000
    Zr32    Zr   0.06047   0.63114   0.65026   1.000
    Zr33    Zr   0.94125   0.70675   0.43916   1.000
    Zr34    Zr   0.16162   0.85518   0.38458   1.000
    Zr35    Zr   0.13617   0.55468   0.35040   1.000
    Zr36    Zr   0.20907   0.44070   0.56013   1.000
    Zr37    Zr   0.35636   0.66141   0.61554   1.000
    Zr38    Zr   0.36165   0.94124   0.35023   1.000
    Zr39    Zr   0.28899   0.05567   0.55988   1.000
    Zr40    Zr   0.14074   0.83560   0.61537   1.000
    Zr41    Zr   0.93776   0.13149   0.84963   1.000
    Zr42    Zr   0.05615   0.20657   0.06067   1.000
    Zr43    Zr   0.83601   0.35519   0.11538   1.000
    Zr44    Zr   0.08633   0.98674   0.86117   1.000
    Zr45    Zr   0.19133   0.96851   0.60510   1.000
    Zr46    Zr   0.30641   0.52826   0.60525   1.000
    Zr47    Zr   0.51308   0.08315   0.36082   1.000
    Zr48    Zr   0.50399   0.23434   0.56716   1.000
    Zr49    Zr   0.61675   0.30860   0.59653   1.000
    Zr50    Zr   0.98415   0.41337   0.36062   1.000
    Zr51    Zr   0.96896   0.30447   0.10547   1.000
    Zr52    Zr   0.99328   0.26220   0.56727   1.000
    Zr53    Zr   0.88076   0.18735   0.59627   1.000
    Zr54    Zr   0.91184   0.48638   0.63888   1.000
    Zr55    Zr   0.76138   0.49298   0.43352   1.000
    Zr56    Zr   0.68729   0.38034   0.40365   1.000
    Zr57    Zr   0.58566   0.00982   0.63885   1.000
    Zr58    Zr   0.69146   0.02781   0.89470   1.000
    Zr59    Zr   0.73632   0.00353   0.43325   1.000
    Zr60    Zr   0.80998   0.11647   0.40345   1.000
    Zr61    Zr   0.46885   0.69170   0.39440   1.000
    Zr62    Zr   0.01417   0.91389   0.13946   1.000
    Zr63    Zr   0.02861   0.80462   0.39447   1.000
    Zr64    Zr   0.91268   0.01032   0.13880   1.000
    Zr65    Zr   0.80644   0.02829   0.39471   1.000
    Zr66    Zr   0.76151   0.00324   0.93335   1.000
    Zr67    Zr   0.68767   0.11598   0.90344   1.000
    Zr68    Zr   0.69130   0.46850   0.39487   1.000
    Zr69    Zr   0.48421   0.91334   0.63934   1.000
    Zr70    Zr   0.49327   0.76215   0.43272   1.000
    Zr71    Zr   0.38074   0.68733   0.40370   1.000
    Zr72    Zr   0.01305   0.58313   0.63915   1.000
    Zr73    Zr   0.00399   0.73433   0.43281   1.000
    Zr74    Zr   0.11677   0.80856   0.40343   1.000
    Zr75    Zr   0.08567   0.50978   0.36113   1.000
    Zr76    Zr   0.23629   0.50351   0.56670   1.000
    Zr77    Zr   0.30996   0.61644   0.59650   1.000
    Zr78    Zr   0.41194   0.98632   0.36108   1.000
    Zr79    Zr   0.26143   0.99298   0.56647   1.000
    Zr80    Zr   0.18729   0.88036   0.59629   1.000
    Zr81    Zr   0.52860   0.30464   0.60549   1.000
    Zr82    Zr   0.98510   0.08343   0.86080   1.000
    Zr83    Zr   0.96886   0.19175   0.60550   1.000
    Zr84    Zr   0.99345   0.23423   0.06704   1.000
    Zr85    Zr   0.88080   0.30856   0.09640   1.000
    Zr86    Zr   0.04341   0.04288   0.81820   1.000
    Zr87    Zr   0.45492   0.04249   0.31823   1.000
    Zr88    Zr   0.04260   0.45387   0.31810   1.000
    Zr89    Zr   0.95483   0.54251   0.68173   1.000
    Zr90    Zr   0.54261   0.95386   0.68182   1.000
    Zr91    Zr   0.95576   0.95447   0.18192   1.000
    Zr92    Zr   0.05602   0.99358   0.92403   1.000
    Zr93    Zr   0.50512   0.05356   0.42379   1.000
    Zr94    Zr   0.57254   0.19906   0.53743   1.000
    Zr95    Zr   0.64288   0.24533   0.55577   1.000
    Zr96    Zr   0.99205   0.44283   0.42364   1.000
    Zr97    Zr   0.92469   0.29716   0.53737   1.000
    Zr98    Zr   0.85449   0.25053   0.55548   1.000
    Zr99    Zr   0.94201   0.49326   0.57598   1.000
    Zr100   Zr   0.79654   0.42438   0.46322   1.000
    Zr101   Zr   0.75038   0.35411   0.44458   1.000
    Zr102   Zr   0.55533   0.00000   0.57599   1.000
    Zr103   Zr   0.70070   0.07197   0.46284   1.000
    Zr104   Zr   0.74662   0.14244   0.44424   1.000
    Zr105   Zr   0.00000   0.94318   0.07639   1.000
    Zr106   Zr   0.94291   0.00000   0.07600   1.000
    Zr107   Zr   0.79683   0.07179   0.96303   1.000
    Zr108   Zr   0.75080   0.14214   0.94437   1.000
    Zr109   Zr   0.49208   0.94280   0.57632   1.000
    Zr110   Zr   0.42469   0.79714   0.46261   1.000
    Zr111   Zr   0.35448   0.75052   0.44449   1.000
    Zr112   Zr   0.00000   0.55354   0.57618   1.000
    Zr113   Zr   0.07253   0.69905   0.46255   1.000
    Zr114   Zr   0.14288   0.74529   0.44420   1.000
    Zr115   Zr   0.05533   0.50290   0.42398   1.000
    Zr116   Zr   0.20067   0.57196   0.53713   1.000
    Zr117   Zr   0.24661   0.64242   0.55573   1.000
    Zr118   Zr   0.44210   0.99324   0.42398   1.000
    Zr119   Zr   0.29658   0.92439   0.53675   1.000
    Zr120   Zr   0.25038   0.85412   0.55537   1.000
    Zr121   Zr   0.99290   0.05381   0.92378   1.000
    Zr122   Zr   0.92487   0.19911   0.03724   1.000
    Zr123   Zr   0.85458   0.24542   0.05561   1.000
    O124    O    0.88972   0.22226   0.04643   1.000
    O125    O    0.95916   0.21667   0.05214   1.000
    O126    O    0.91993   0.14018   0.01861   1.000
    O127    O    0.86769   0.27699   0.07601   1.000
    O128    O    0.80162   0.24675   0.02776   1.000
    O129    O    0.02480   0.22040   0.06385   1.000
    O130    O    0.98121   0.26935   0.08625   1.000
    O131    O    0.97145   0.97159   0.07619   1.000
    O132    O    0.92780   0.00516   0.10740   1.000
    O133    O    0.92895   0.04062   0.03799   1.000
    O134    O    0.00708   0.92853   0.10793   1.000
    O135    O    0.04172   0.92917   0.03817   1.000
    O136    O    0.92488   0.30652   0.10093   1.000
    O137    O    0.85840   0.33187   0.10589   1.000
    O138    O    0.88746   0.03279   0.14420   1.000
    O139    O    0.93422   0.98239   0.16036   1.000
    O140    O    0.03793   0.88996   0.14509   1.000
    O141    O    0.98496   0.93418   0.16069   1.000
    O142    O    0.01338   0.43362   0.33936   1.000
    O143    O    0.06413   0.48183   0.33961   1.000
    O144    O    0.48400   0.06282   0.33952   1.000
    O145    O    0.43343   0.01440   0.33966   1.000
    O146    O    0.96040   0.38943   0.35500   1.000
    O147    O    0.53678   0.10716   0.35527   1.000
    O148    O    0.38680   0.96378   0.35565   1.000
    O149    O    0.11092   0.53223   0.35576   1.000
    O150    O    0.98810   0.42810   0.39213   1.000
    O151    O    0.50910   0.06835   0.39230   1.000
    O152    O    0.42702   0.98978   0.39253   1.000
    O153    O    0.07050   0.50634   0.39255   1.000
    O154    O    0.83317   0.13896   0.39394   1.000
    O155    O    0.66402   0.35796   0.39408   1.000
    O156    O    0.13919   0.83187   0.39400   1.000
    O157    O    0.35840   0.66390   0.39435   1.000
    O158    O    0.42480   0.68952   0.39905   1.000
    O159    O    0.48106   0.72693   0.41356   1.000
    O160    O    0.07269   0.80659   0.39895   1.000
    O161    O    0.01630   0.76947   0.41364   1.000
    O162    O    0.80821   0.07238   0.39908   1.000
    O163    O    0.77138   0.01591   0.41398   1.000
    O164    O    0.68929   0.42442   0.39926   1.000
    O165    O    0.72634   0.48074   0.41419   1.000
    O166    O    0.12982   0.77692   0.42381   1.000
    O167    O    0.77830   0.12945   0.42384   1.000
    O168    O    0.71883   0.36723   0.42412   1.000
    O169    O    0.36761   0.71893   0.42409   1.000
    O170    O    0.02369   0.47287   0.42381   1.000
    O171    O    0.95340   0.42890   0.46183   1.000
    O172    O    0.47361   0.02340   0.42389   1.000
    O173    O    0.54371   0.06741   0.46192   1.000
    O174    O    0.06880   0.54208   0.46196   1.000
    O175    O    0.42844   0.95410   0.46196   1.000
    O176    O    0.52458   0.77608   0.43581   1.000
    O177    O    0.45898   0.77964   0.44766   1.000
    O178    O    0.97262   0.72054   0.43598   1.000
    O179    O    0.03826   0.71669   0.44768   1.000
    O180    O    0.72271   0.97211   0.43654   1.000
    O181    O    0.71851   0.03775   0.44805   1.000
    O182    O    0.77514   0.52431   0.43683   1.000
    O183    O    0.77896   0.45868   0.44837   1.000
    O184    O    0.10770   0.72217   0.45337   1.000
    O185    O    0.19565   0.74670   0.47211   1.000
    O186    O    0.72366   0.10720   0.45354   1.000
    O187    O    0.74753   0.19528   0.47210   1.000
    O188    O    0.38958   0.77383   0.45355   1.000
    O189    O    0.30146   0.74932   0.47225   1.000
    O190    O    0.77346   0.38925   0.45390   1.000
    O191    O    0.74941   0.30112   0.47226   1.000
    O192    O    0.07740   0.64015   0.48124   1.000
    O193    O    0.41974   0.85604   0.48127   1.000
    O194    O    0.64150   0.07662   0.48144   1.000
    O195    O    0.85565   0.41968   0.48163   1.000
    O196    O    0.14148   0.57661   0.51853   1.000
    O197    O    0.04114   0.56739   0.53805   1.000
    O198    O    0.35568   0.91967   0.51834   1.000
    O199    O    0.45343   0.92888   0.53813   1.000
    O200    O    0.80146   0.24932   0.52772   1.000
    O201    O    0.69566   0.24673   0.52786   1.000
    O202    O    0.24941   0.80112   0.52769   1.000
    O203    O    0.24752   0.69527   0.52787   1.000
    O204    O    0.24854   0.74808   0.55001   1.000
    O205    O    0.91972   0.35606   0.51870   1.000
    O206    O    0.92838   0.45411   0.53800   1.000
    O207    O    0.57742   0.14016   0.51874   1.000
    O208    O    0.56882   0.04063   0.53802   1.000
    O209    O    0.27348   0.88926   0.54606   1.000
    O210    O    0.27901   0.95868   0.55161   1.000
    O211    O    0.22364   0.60719   0.54643   1.000
    O212    O    0.21848   0.53774   0.55191   1.000
    O213    O    0.88959   0.27384   0.54642   1.000
    O214    O    0.95898   0.27968   0.55232   1.000
    O215    O    0.60771   0.22220   0.54660   1.000
    O216    O    0.53827   0.21670   0.55229   1.000
    O217    O    0.21884   0.86724   0.57583   1.000
    O218    O    0.24952   0.80109   0.57768   1.000
    O219    O    0.86763   0.21894   0.57588   1.000
    O220    O    0.27828   0.62943   0.57611   1.000
    O221    O    0.24763   0.69524   0.57786   1.000
    O222    O    0.62982   0.27697   0.57615   1.000
    O223    O    0.27521   0.02433   0.56317   1.000
    O224    O    0.22268   0.47211   0.56341   1.000
    O225    O    0.47264   0.22054   0.56399   1.000
    O226    O    0.02459   0.27613   0.56419   1.000
    O227    O    0.22638   0.98075   0.58578   1.000
    O228    O    0.27135   0.51589   0.58597   1.000
    O229    O    0.51630   0.26949   0.58632   1.000
    O230    O    0.98107   0.22697   0.58638   1.000
    O231    O    0.97101   0.52340   0.57608   1.000
    O232    O    0.92693   0.48982   0.60743   1.000
    O233    O    0.52371   0.97140   0.57615   1.000
    O234    O    0.57050   0.00491   0.60742   1.000
    O235    O    0.00652   0.56833   0.60767   1.000
    O236    O    0.48814   0.92807   0.60783   1.000
    O237    O    0.92481   0.18955   0.60088   1.000
    O238    O    0.85842   0.16390   0.60562   1.000
    O239    O    0.18931   0.92444   0.60069   1.000
    O240    O    0.16402   0.85798   0.60583   1.000
    O241    O    0.30819   0.57235   0.60088   1.000
    O242    O    0.33316   0.63893   0.60602   1.000
    O243    O    0.57268   0.30662   0.60101   1.000
    O244    O    0.63917   0.33192   0.60595   1.000
    O245    O    0.61090   0.03228   0.64417   1.000
    O246    O    0.56414   0.98184   0.66034   1.000
    O247    O    0.88668   0.46386   0.64430   1.000
    O248    O    0.93334   0.51445   0.66030   1.000
    O249    O    0.03676   0.60714   0.64470   1.000
    O250    O    0.98394   0.56282   0.66044   1.000
    O251    O    0.46047   0.88939   0.64495   1.000
    O252    O    0.51341   0.93360   0.66058   1.000
    O253    O    0.01425   0.06315   0.83950   1.000
    O254    O    0.06487   0.01481   0.83969   1.000
    O255    O    0.96143   0.10746   0.85521   1.000
    O256    O    0.11151   0.96423   0.85576   1.000
    O257    O    0.98900   0.06862   0.89229   1.000
    O258    O    0.07117   0.99016   0.89260   1.000
    O259    O    0.66447   0.13841   0.89387   1.000
    O260    O    0.68957   0.07190   0.89907   1.000
    O261    O    0.72649   0.01552   0.91402   1.000
    O262    O    0.71924   0.12906   0.92391   1.000
    O263    O    0.02446   0.02369   0.92391   1.000
    O264    O    0.95394   0.06753   0.96189   1.000
    O265    O    0.06973   0.95437   0.96200   1.000
    O266    O    0.77521   0.97186   0.93666   1.000
    O267    O    0.77917   0.03751   0.94819   1.000
    O268    O    0.77382   0.10696   0.95370   1.000
    O269    O    0.74973   0.19511   0.97215   1.000
    O270    O    0.85591   0.07652   0.98151   1.000
    N271    N    0.92149   0.57655   0.88389   1.000
    O272    O    0.83474   0.43877   0.92801   1.000
    O273    O    0.99986   0.71644   0.93255   1.000
    O274    O    0.93493   0.56285   0.80075   1.000
    N275    N    0.14042   0.48759   0.13311   1.000
    O276    O    0.06807   0.41104   0.12868   1.000
    O277    O    0.09481   0.46742   0.20766   1.000
    O278    O    0.24817   0.53204   0.07578   1.000
    N279    N    0.07004   0.06988   0.67699   1.000
    O280    O    0.03286   0.11582   0.65063   1.000
    O281    O    0.05997   0.05967   0.72966   1.000
    O282    O    0.11576   0.03261   0.65047   1.000
    N283    N    0.42153   0.07653   0.11606   1.000
    O284    O    0.43499   0.06282   0.19920   1.000
    O285    O    0.55874   0.16305   0.07196   1.000
    O286    O    0.28205   0.99814   0.06720   1.000
    N287    N    0.55424   0.55387   0.23864   1.000
    O288    O    0.60783   0.52459   0.30734   1.000
    O289    O    0.50408   0.56070   0.13837   1.000
    O290    O    0.52494   0.60780   0.30716   1.000
    N291    N    0.92823   0.92710   0.32299   1.000
    O292    O    0.96509   0.88092   0.34936   1.000
    O293    O    0.88235   0.96433   0.34945   1.000
    O294    O    0.93867   0.93749   0.27040   1.000
    N295    N    0.44433   0.44316   0.76121   1.000
    O296    O    0.47314   0.38896   0.69272   1.000
    O297    O    0.43664   0.49271   0.86159   1.000
    O298    O    0.39039   0.47235   0.69262   1.000
    N299    N    0.50894   0.85580   0.86677   1.000
    O300    O    0.46443   0.74799   0.92406   1.000
    O301    O    0.58522   0.92841   0.87133   1.000
    O302    O    0.52907   0.90153   0.79224   1.000
loop_
    _geom_bond_atom_site_label_1
    _geom_bond_atom_site_label_2
    _geom_bond_distance
    _geom_bond_site_symmetry_2
    _ccdc_geom_bond_type
    Zr122  O124      0.68768      .   S
    Zr123  O124      0.68768      .   S
    Zr122  O125      0.67586      .   S
    Zr84   O125      0.67586      .   S
    Zr122  O126      1.00317      .   S
    Zr8    O126      1.00317  1_556   S
    Zr123  O127      0.67545      .   S
    Zr85   O127      0.67545      .   S
    Zr123  O128      1.00299      .   S
    Zr2    O128      1.00299  1_556   S
    Zr42   O129      0.54320      .   S
    Zr84   O129      0.54320  1_655   S
    Zr84   O130      0.70069      .   S
    Zr51   O130      0.70069      .   S
    Zr106  O131      0.63423  1_545   S
    Zr105  O131      0.63423  1_455   S
    Zr106  O132      0.67660      .   S
    Zr64   O132      0.67660      .   S
    Zr106  O133      1.01771      .   S
    Zr8    O133      1.01771  1_556   S
    Zr105  O134      0.68092      .   S
    Zr62   O134      0.68092      .   S
    Zr105  O135      1.03179      .   S
    Zr4    O135      1.03179  1_556   S
    Zr85   O136      0.70060      .   S
    Zr51   O136      0.70060      .   S
    Zr85   O137      0.54334      .   S
    Zr43   O137      0.54334      .   S
    Zr64   O138      0.54287      .   S
    Zr26   O138      0.54287      .   S
    Zr64   O139      0.70318  1_545   S
    Zr91   O139      0.70318      .   S
    Zr62   O140      0.54278      .   S
    Zr25   O140      0.54278      .   S
    Zr62   O141      0.70279  1_455   S
    Zr91   O141      0.70279      .   S
    Zr88   O142      0.70303      .   S
    Zr50   O142      0.70303  1_655   S
    Zr88   O143      0.70284      .   S
    Zr75   O143      0.70284      .   S
    Zr87   O144      0.70250      .   S
    Zr47   O144      0.70250      .   S
    Zr87   O145      0.70273      .   S
    Zr78   O145      0.70273  1_565   S
    Zr16   O146      0.54276      .   S
    Zr50   O146      0.54276      .   S
    Zr13   O147      0.54274      .   S
    Zr47   O147      0.54274      .   S
    Zr38   O148      0.54269      .   S
    Zr78   O148      0.54269      .   S
    Zr35   O149      0.54273      .   S
    Zr75   O149      0.54273      .   S
    Zr50   O150      0.67455      .   S
    Zr96   O150      0.67455      .   S
    Zr47   O151      0.67450      .   S
    Zr93   O151      0.67450      .   S
    Zr78   O152      0.67464      .   S
    Zr118  O152      0.67464      .   S
    Zr75   O153      0.67467      .   S
    Zr115  O153      0.67467      .   S
    Zr24   O154      0.54311      .   S
    Zr60   O154      0.54311      .   S
    Zr21   O155      0.54326      .   S
    Zr56   O155      0.54326      .   S
    Zr34   O156      0.54309      .   S
    Zr74   O156      0.54309      .   S
    Zr31   O157      0.54309      .   S
    Zr71   O157      0.54309      .   S
    Zr61   O158      0.70057      .   S
    Zr71   O158      0.70057      .   S
    Zr61   O159      0.70112      .   S
    Zr70   O159      0.70112      .   S
    Zr63   O160      0.70037      .   S
    Zr74   O160      0.70037      .   S
    Zr63   O161      0.70071      .   S
    Zr73   O161      0.70071      .   S
    Zr65   O162      0.70045      .   S
    Zr60   O162      0.70045      .   S
    Zr65   O163      0.70090      .   S
    Zr59   O163      0.70090      .   S
    Zr68   O164      0.70045      .   S
    Zr56   O164      0.70045      .   S
    Zr68   O165      0.70066      .   S
    Zr55   O165      0.70066      .   S
    Zr74   O166      0.67583      .   S
    Zr114  O166      0.67583      .   S
    Zr60   O167      0.67603      .   S
    Zr104  O167      0.67603      .   S
    Zr56   O168      0.67597      .   S
    Zr101  O168      0.67597      .   S
    Zr71   O169      0.67590      .   S
    Zr111  O169      0.67590      .   S
    Zr96   O170      0.68691  1_655   S
    Zr115  O170      0.68691      .   S
    Zr96   O171      1.00106      .   S
    Zr7    O171      1.00106      .   S
    Zr93   O172      0.68678      .   S
    Zr118  O172      0.68678  1_565   S
    Zr93   O173      0.99920      .   S
    Zr6    O173      0.99920      .   S
    Zr115  O174      1.00138      .   S
    Zr11   O174      1.00138      .   S
    Zr118  O175      1.00180      .   S
    Zr10   O175      1.00180      .   S
    Zr70   O176      0.54302      .   S
    Zr30   O176      0.54302      .   S
    Zr70   O177      0.67585      .   S
    Zr110  O177      0.67585      .   S
    Zr73   O178      0.54317  1_455   S
    Zr33   O178      0.54317      .   S
    Zr73   O179      0.67583      .   S
    Zr113  O179      0.67583      .   S
    Zr59   O180      0.54322  1_545   S
    Zr23   O180      0.54322      .   S
    Zr59   O181      0.67585      .   S
    Zr103  O181      0.67585      .   S
    Zr55   O182      0.54301      .   S
    Zr20   O182      0.54301      .   S
    Zr55   O183      0.67578      .   S
    Zr100  O183      0.67578      .   S
    Zr114  O184      0.68770      .   S
    Zr113  O184      0.68770      .   S
    Zr114  O185      1.00130      .   S
    Zr3    O185      1.00130      .   S
    Zr104  O186      0.68787      .   S
    Zr103  O186      0.68787      .   S
    Zr104  O187      1.00171      .   S
    Zr1    O187      1.00171      .   S
    Zr111  O188      0.68773      .   S
    Zr110  O188      0.68773      .   S
    Zr111  O189      1.00283      .   S
    Zr3    O189      1.00283      .   S
    Zr101  O190      0.68773      .   S
    Zr100  O190      0.68773      .   S
    Zr101  O191      1.00182      .   S
    Zr1    O191      1.00182      .   S
    Zr113  O192      1.00313      .   S
    Zr11   O192      1.00313      .   S
    Zr110  O193      1.00315      .   S
    Zr10   O193      1.00315      .   S
    Zr103  O194      1.00613      .   S
    Zr6    O194      1.00613      .   S
    Zr100  O195      1.00346      .   S
    Zr7    O195      1.00346      .   S
    Zr11   O196      1.00612      .   S
    Zr116  O196      1.00612      .   S
    Zr11   O197      1.02409      .   S
    Zr112  O197      1.02409      .   S
    Zr10   O198      1.00341      .   S
    Zr119  O198      1.00341      .   S
    Zr10   O199      1.00098      .   S
    Zr109  O199      1.00098      .   S
    Zr1    O200      1.00289      .   S
    Zr98   O200      1.00289      .   S
    Zr1    O201      1.00129      .   S
    Zr95   O201      1.00129      .   S
    Zr3    O202      1.00185      .   S
    Zr120  O202      1.00185      .   S
    Zr3    O203      1.00174      .   S
    Zr117  O203      1.00174      .   S
    Zr3    O204      1.00005      .   S
    Zr0    O204      1.00005      .   S
    Zr7    O205      1.00314      .   S
    Zr97   O205      1.00314      .   S
    Zr7    O206      1.00161      .   S
    Zr99   O206      1.00161      .   S
    Zr6    O207      1.00316      .   S
    Zr94   O207      1.00316      .   S
    Zr6    O208      1.01575      .   S
    Zr102  O208      1.01575      .   S
    Zr119  O209      0.68775      .   S
    Zr120  O209      0.68775      .   S
    Zr119  O210      0.67581      .   S
    Zr79   O210      0.67581      .   S
    Zr116  O211      0.68786      .   S
    Zr117  O211      0.68786      .   S
    Zr116  O212      0.67580      .   S
    Zr76   O212      0.67580      .   S
    Zr97   O213      0.68774      .   S
    Zr98   O213      0.68774      .   S
    Zr97   O214      0.67585      .   S
    Zr52   O214      0.67585      .   S
    Zr94   O215      0.68768      .   S
    Zr95   O215      0.68768      .   S
    Zr94   O216      0.67583      .   S
    Zr48   O216      0.67583      .   S
    Zr120  O217      0.67591      .   S
    Zr80   O217      0.67591      .   S
    Zr120  O218      0.94723      .   S
    Zr0    O218      0.94723      .   S
    Zr98   O219      0.67589      .   S
    Zr53   O219      0.67589      .   S
    Zr117  O220      0.67595      .   S
    Zr77   O220      0.67595      .   S
    Zr117  O221      0.94248      .   S
    Zr0    O221      0.94248      .   S
    Zr95   O222      0.67585      .   S
    Zr49   O222      0.67585      .   S
    Zr39   O223      0.54324      .   S
    Zr79   O223      0.54324  1_565   S
    Zr36   O224      0.54298      .   S
    Zr76   O224      0.54298      .   S
    Zr14   O225      0.54300      .   S
    Zr48   O225      0.54300      .   S
    Zr17   O226      0.54318      .   S
    Zr52   O226      0.54318  1_655   S
    Zr79   O227      0.70063      .   S
    Zr45   O227      0.70063      .   S
    Zr76   O228      0.70097      .   S
    Zr46   O228      0.70097      .   S
    Zr48   O229      0.70072      .   S
    Zr81   O229      0.70072      .   S
    Zr52   O230      0.70066      .   S
    Zr83   O230      0.70066      .   S
    Zr99   O231      0.65852      .   S
    Zr112  O231      0.65852  1_455   S
    Zr99   O232      0.67466      .   S
    Zr54   O232      0.67466      .   S
    Zr102  O233      0.67137  1_545   S
    Zr109  O233      0.67137      .   S
    Zr102  O234      0.67699      .   S
    Zr57   O234      0.67699      .   S
    Zr112  O235      0.67939      .   S
    Zr72   O235      0.67939      .   S
    Zr109  O236      0.67456      .   S
    Zr69   O236      0.67456      .   S
    Zr53   O237      0.70047      .   S
    Zr83   O237      0.70047      .   S
    Zr53   O238      0.54309      .   S
    Zr18   O238      0.54309      .   S
    Zr80   O239      0.70046      .   S
    Zr45   O239      0.70046      .   S
    Zr80   O240      0.54308      .   S
    Zr40   O240      0.54308      .   S
    Zr77   O241      0.70047      .   S
    Zr46   O241      0.70047      .   S
    Zr77   O242      0.54318      .   S
    Zr37   O242      0.54318      .   S
    Zr49   O243      0.70036      .   S
    Zr81   O243      0.70036      .   S
    Zr49   O244      0.54307      .   S
    Zr15   O244      0.54307      .   S
    Zr57   O245      0.54256      .   S
    Zr22   O245      0.54256      .   S
    Zr57   O246      0.70268  1_545   S
    Zr90   O246      0.70268      .   S
    Zr54   O247      0.54271      .   S
    Zr19   O247      0.54271      .   S
    Zr54   O248      0.70254      .   S
    Zr89   O248      0.70254      .   S
    Zr72   O249      0.54275      .   S
    Zr32   O249      0.54275      .   S
    Zr72   O250      0.70261  1_455   S
    Zr89   O250      0.70261      .   S
    Zr69   O251      0.54275      .   S
    Zr29   O251      0.54275      .   S
    Zr69   O252      0.70262      .   S
    Zr90   O252      0.70262      .   S
    Zr86   O253      0.70306      .   S
    Zr82   O253      0.70306  1_655   S
    Zr86   O254      0.70309      .   S
    Zr44   O254      0.70309  1_565   S
    Zr41   O255      0.54275      .   S
    Zr82   O255      0.54275      .   S
    Zr12   O256      0.54276      .   S
    Zr44   O256      0.54276      .   S
    Zr82   O257      0.67456      .   S
    Zr121  O257      0.67456      .   S
    Zr44   O258      0.67466      .   S
    Zr92   O258      0.67466      .   S
    Zr28   O259      0.54309      .   S
    Zr67   O259      0.54309      .   S
    Zr58   O260      0.70049      .   S
    Zr67   O260      0.70049      .   S
    Zr58   O261      0.70070      .   S
    Zr66   O261      0.70070      .   S
    Zr67   O262      0.67597      .   S
    Zr108  O262      0.67597      .   S
    Zr121  O263      0.68697  1_655   S
    Zr92   O263      0.68697  1_565   S
    Zr121  O264      1.00192      .   S
    Zr8    O264      1.00192      .   S
    Zr92   O265      1.00241      .   S
    Zr4    O265      1.00241      .   S
    Zr66   O266      0.54323  1_545   S
    Zr27   O266      0.54323      .   S
    Zr66   O267      0.67585      .   S
    Zr107  O267      0.67585      .   S
    Zr108  O268      0.68784      .   S
    Zr107  O268      0.68784      .   S
    Zr108  O269      1.00249      .   S
    Zr2    O269      1.00249      .   S
    Zr107  O270      1.00362      .   S
    Zr8    O270      1.00362      .   S
    N271   O272      2.71141      .   S
    Zr2    O272      3.59538      .   S
    N271   O273      2.70612      .   S
    Zr4    O273      3.65310  1_455   S
    N271   O274      1.69043      .   S
    Zr89   O274      2.42287      .   S
    N275   O276      1.66085      .   S
    Zr51   O276      2.33810  1_655   S
    N275   O277      1.68532      .   S
    Zr88   O277      2.36695      .   S
    N275   O278      2.16398      .   S
    Zr5    O278      3.12987  1_556   S
    N279   O280      1.06982      .   S
    Zr83   O280      1.80562  1_655   S
    N279   O281      1.07754      .   S
    Zr86   O281      1.80979      .   S
    N279   O282      1.06965      .   S
    Zr45   O282      1.80525  1_565   S
    N283   O284      1.69054      .   S
    Zr87   O284      2.42297      .   S
    N283   O285      2.70182      .   S
    Zr2    O285      3.57891  1_556   S
    N283   O286      2.70208  1_545   S
    Zr4    O286      3.64578  1_556   S
    N287   O288      1.67725      .   S
    Zr68   O288      2.36089      .   S
    N287   O289      2.15853      .   S
    Zr5    O289      3.12009  1_556   S
    N287   O290      1.67717      .   S
    Zr61   O290      2.36055      .   S
    N291   O292      1.06971      .   S
    Zr63   O292      1.80529  1_455   S
    N291   O293      1.07044      .   S
    Zr65   O293      1.80632  1_545   S
    N291   O294      1.07736      .   S
    Zr91   O294      1.81018      .   S
    N295   O296      1.67680      .   S
    Zr81   O296      2.36028      .   S
    N295   O297      2.15782      .   S
    Zr5    O297      3.11872      .   S
    N295   O298      1.67781      .   S
    Zr46   O298      2.36192      .   S
    N299   O300      2.16515      .   S
    Zr5    O300      3.13213      .   S
    N299   O301      1.66069      .   S
    Zr58   O301      2.33798  1_545   S
    N299   O302      1.68577      .   S
    Zr90   O302      2.36729      .   S
