# CIF file generated by openbabel 2.4.90, see http://openbabel.sf.net
data_I
_chemical_name_common ''
_cell_length_a 15.743
_cell_length_b 15.75
_cell_length_c 20.005
_cell_angle_alpha 90.001
_cell_angle_beta 90
_cell_angle_gamma 90.008
_space_group_name_H-M_alt 'P 1'
_space_group_name_Hall 'P 1'
loop_
    _symmetry_equiv_pos_as_xyz
    x,y,z
loop_
    _atom_site_label
    _atom_site_type_symbol
    _atom_site_fract_x
    _atom_site_fract_y
    _atom_site_fract_z
    _atom_site_occupancy
    Zr0     Zr   0.74843   0.24812   0.49995   1.000
    Zr1     Zr   0.58231   0.08127   0.50004   1.000
    Zr2     Zr   0.91475   0.41497   0.50003   1.000
    Zr3     Zr   0.41478   0.91495   0.49994   1.000
    Zr4     Zr   0.08228   0.58125   0.49993   1.000
    N5      N    0.92149   0.57655   0.88389   1.000
    N6      N    0.14042   0.48759   0.13311   1.000
    N7      N    0.07004   0.06988   0.67699   1.000
    N8      N    0.42153   0.07653   0.11606   1.000
    N9      N    0.55424   0.55387   0.23864   1.000
    N10     N    0.92823   0.92710   0.32299   1.000
    N11     N    0.44433   0.44316   0.76121   1.000
    N12     N    0.50894   0.85580   0.86677   1.000
    Zr13    Zr   0.91510   0.08184   0.00005   1.000
    O14     O    0.98753   0.07076   0.86486   1.000
    O15     O    0.99158   0.24644   0.06437   1.000
    O16     O    0.73692   0.12244   0.03601   1.000
    O17     O    0.87492   0.26031   0.96403   1.000
    O18     O    0.09857   0.03999   0.03363   1.000
    O19     O    0.95748   0.89914   0.96630   1.000
    O20     O    0.92688   0.00967   0.13523   1.000
    O21     O    0.75016   0.00513   0.93569   1.000
    Zr22    Zr   0.24854   0.74808   0.55001   1.000
    C23     C    0.56681   0.26485   0.57694   1.000
    O24     O    0.51997   0.32691   0.63483   1.000
    O25     O    0.63123   0.25579   0.55240   1.000
    O26     O    0.57211   0.20251   0.54784   1.000
    C27     C    0.03323   0.46328   0.36961   1.000
    O28     O    0.05102   0.50268   0.41578   1.000
    O29     O    0.99332   0.44609   0.41572   1.000
    O30     O    0.06402   0.46535   0.28863   1.000
    C31     C    0.53325   0.96286   0.63034   1.000
    O32     O    0.55104   0.00174   0.58418   1.000
    O33     O    0.49334   0.94587   0.58424   1.000
    O34     O    0.53116   0.93219   0.71129   1.000
    C35     C    0.76650   0.06640   0.42325   1.000
    O36     O    0.70400   0.07151   0.45235   1.000
    O37     O    0.75702   0.13084   0.44767   1.000
    O38     O    0.82443   0.01537   0.38635   1.000
    C39     C    0.06681   0.76482   0.42303   1.000
    O40     O    0.01595   0.82287   0.38619   1.000
    O41     O    0.14445   0.75611   0.46704   1.000
    O42     O    0.07210   0.70249   0.45213   1.000
    C43     C    0.43057   0.73133   0.42312   1.000
    O44     O    0.47775   0.66956   0.36514   1.000
    O45     O    0.42515   0.79369   0.45220   1.000
    O46     O    0.35278   0.74002   0.46712   1.000
    C47     C    0.26648   0.56639   0.57671   1.000
    O48     O    0.20398   0.57150   0.54762   1.000
    O49     O    0.25726   0.64403   0.55783   1.000
    O50     O    0.25728   0.64402   0.57032   1.000
    O51     O    0.32844   0.51937   0.63467   1.000
    C52     C    0.23096   0.93023   0.57646   1.000
    O53     O    0.23997   0.85242   0.55766   1.000
    O54     O    0.24000   0.85241   0.57015   1.000
    O55     O    0.29332   0.92495   0.54740   1.000
    O56     O    0.17336   0.98142   0.61346   1.000
    C57     C    0.93058   0.23136   0.57685   1.000
    O58     O    0.98172   0.17359   0.61374   1.000
    O59     O    0.92515   0.29371   0.54778   1.000
    O60     O    0.86602   0.24034   0.55228   1.000
    C61     C    0.96339   0.53304   0.63027   1.000
    O62     O    0.00226   0.55022   0.58416   1.000
    O63     O    0.94916   0.54794   0.71551   1.000
    O64     O    0.94588   0.49358   0.58414   1.000
    C65     C    0.73093   0.43022   0.42350   1.000
    O66     O    0.66938   0.47740   0.36542   1.000
    O67     O    0.79329   0.42495   0.45256   1.000
    O68     O    0.74017   0.36567   0.44788   1.000
    C69     C    0.46418   0.03302   0.36969   1.000
    O70     O    0.44631   0.99356   0.41583   1.000
    O71     O    0.44959   0.04792   0.28445   1.000
    O72     O    0.50395   0.05022   0.41580   1.000
    Zr73    Zr   0.58333   0.41517   0.20000   1.000
    Zr74    Zr   0.41500   0.58124   0.99999   1.000
    O75     O    0.45954   0.57097   0.06918   1.000
    O76     O    0.33158   0.55664   0.03788   1.000
    O77     O    0.43972   0.66461   0.96203   1.000
    O78     O    0.42582   0.53697   0.93079   1.000
loop_
    _geom_bond_atom_site_label_1
    _geom_bond_atom_site_label_2
    _geom_bond_distance
    _geom_bond_site_symmetry_2
    _ccdc_geom_bond_type
    Zr13   O14       2.94041  1_554   S
    N7     O14       3.97642  1_455   S
    Zr13   O15       3.13448      .   S
    N6     O15       4.66952  1_455   S
    Zr13   O16       2.96568      .   S
    N8     O16       5.26675      .   S
    Zr13   O17       2.96999  1_554   S
    N5     O17       5.28349      .   S
    Zr13   O18       3.03796  1_655   S
    N8     O18       5.37597      .   S
    Zr13   O19       3.03017  1_544   S
    N5     O19       5.37142      .   S
    Zr13   O20       2.93922      .   S
    N10    O20       3.97500  1_565   S
    Zr13   O21       3.13996  1_554   S
    N12    O21       4.67452  1_565   S
    C23    O24       1.68527      .   S
    N11    O24       3.34108      .   S
    C23    O25       1.13581      .   S
    Zr0    O25       2.12602      .   S
    C23    O26       1.14457      .   S
    Zr1    O26       2.14159      .   S
    C27    O28       1.14746      .   S
    Zr4    O28       2.14647      .   S
    C27    O29       1.14854  1_455   S
    Zr2    O29       2.14812      .   S
    C27    O30       1.69118      .   S
    N6     O30       3.35389      .   S
    C31    O32       1.14295  1_565   S
    Zr1    O32       2.15500      .   S
    C31    O33       1.14763      .   S
    Zr3    O33       2.14714      .   S
    C31    O34       1.69018      .   S
    N12    O34       3.35317      .   S
    C35    O36       1.14606      .   S
    Zr1    O36       2.14585      .   S
    C35    O37       1.13626      .   S
    Zr0    O37       2.12701      .   S
    C35    O38       1.42222      .   S
    N10    O38       2.49203  1_565   S
    C39    O40       1.42131      .   S
    N10    O40       2.49028  1_655   S
    C39    O41       1.51277      .   S
    Zr22   O41       2.33584      .   S
    C39    O42       1.14455      .   S
    Zr4    O42       2.14153      .   S
    C43    O44       1.68629      .   S
    N9     O44       3.34274      .   S
    C43    O45       1.14466      .   S
    Zr3    O45       2.14166      .   S
    C43    O46       1.51438      .   S
    Zr22   O46       2.33636      .   S
    C47    O48       1.14604      .   S
    Zr4    O48       2.14582      .   S
    C47    O49       1.28814      .   S
    Zr22   O49       1.65196      .   S
    C47    O50       1.23793      .   S
    Zr22   O50       1.69417      .   S
    C47    O51       1.68646      .   S
    N11    O51       3.34342      .   S
    C52    O53       1.28988      .   S
    Zr22   O53       1.65592      .   S
    C52    O54       1.24042      .   S
    Zr22   O54       1.69721      .   S
    C52    O55       1.14394      .   S
    Zr3    O55       2.14073      .   S
    C52    O56       1.42145      .   S
    N7     O56       2.49044  1_545   S
    C57    O58       1.42154      .   S
    N7     O58       2.49063  1_455   S
    C57    O59       1.14460      .   S
    Zr2    O59       2.14161      .   S
    C57    O60       1.13782      .   S
    Zr0    O60       2.13028      .   S
    C61    O62       1.13954  1_655   S
    Zr4    O62       2.15989      .   S
    C61    O63       1.73583      .   S
    N5     O63       3.42623      .   S
    C61    O64       1.14629      .   S
    Zr2    O64       2.14570      .   S
    C65    O66       1.68566      .   S
    N9     O66       3.34200      .   S
    C65    O67       1.14398      .   S
    Zr2    O67       2.14082      .   S
    C65    O68       1.13700      .   S
    Zr0    O68       2.12826      .   S
    C69    O70       1.14770  1_545   S
    Zr3    O70       2.14724      .   S
    C69    O71       1.73667      .   S
    N8     O71       3.42716      .   S
    C69    O72       1.14721      .   S
    Zr1    O72       2.14484      .   S
    Zr74   O75       1.56004  1_556   S
    N9     O75       3.71327      .   S
    Zr74   O76       1.56494  1_556   S
    N6     O76       3.72396      .   S
    Zr74   O77       1.56607      .   S
    N12    O77       3.72642      .   S
    Zr74   O78       1.55936      .   S
    N11    O78       3.71177      .   S
