# CIF file generated by openbabel 2.4.90, see http://openbabel.sf.net
data_I
_chemical_name_common ''
_cell_length_a 9.2075
_cell_length_b 11.1285
_cell_length_c 12.191
_cell_angle_alpha 85.613
_cell_angle_beta 89.858
_cell_angle_gamma 89.891
_space_group_name_H-M_alt 'P 1'
_space_group_name_Hall 'P 1'
loop_
    _symmetry_equiv_pos_as_xyz
    x,y,z
loop_
    _atom_site_label
    _atom_site_type_symbol
    _atom_site_fract_x
    _atom_site_fract_y
    _atom_site_fract_z
    _atom_site_occupancy
    C0      C    0.24531   0.15395   0.99555   1.000
    C1      C    0.56050   0.03752   0.79984   1.000
    C2      C    0.29287   0.85340   0.76092   1.000
    C3      C    0.07024   0.05907   0.72689   1.000
    C4      C    0.74787   0.34570   0.50213   1.000
    C5      C    0.06320   0.46179   0.69655   1.000
    C6      C    0.79482   0.64633   0.73695   1.000
    C7      C    0.57116   0.44060   0.76979   1.000
    C8      C    0.75721   0.84618   0.00283   1.000
    C9      C    0.43897   0.96192   0.19753   1.000
    C10     C    0.70773   0.14805   0.23671   1.000
    C11     C    0.92859   0.94141   0.27242   1.000
    C12     C    0.25272   0.65629   0.49343   1.000
    C13     C    0.93719   0.53855   0.29886   1.000
    C14     C    0.20550   0.35456   0.25940   1.000
    C15     C    0.42907   0.56014   0.22586   1.000
    O16     O    0.12639   0.13884   0.65694   1.000
    O17     O    0.36907   0.18704   0.02907   1.000
    O18     O    0.14258   0.12012   0.05956   1.000
    O19     O    0.33219   0.75288   0.81514   1.000
    O20     O    0.62189   0.09306   0.87485   1.000
    O21     O    0.95033   0.01069   0.71294   1.000
    O22     O    0.25141   0.86420   0.66427   1.000
    O23     O    0.62034   0.95948   0.74761   1.000
    O24     O    0.62567   0.36006   0.83976   1.000
    O25     O    0.87176   0.31348   0.46747   1.000
    O26     O    0.64380   0.37910   0.43946   1.000
    O27     O    0.83095   0.74685   0.68124   1.000
    O28     O    0.12504   0.40682   0.62094   1.000
    O29     O    0.45012   0.48964   0.78298   1.000
    O30     O    0.75650   0.63585   0.83445   1.000
    O31     O    0.12100   0.54141   0.75062   1.000
    O32     O    0.87145   0.86171   0.34200   1.000
    O33     O    0.63400   0.81307   0.96809   1.000
    O34     O    0.86108   0.87936   0.93963   1.000
    O35     O    0.66816   0.24733   0.18065   1.000
    O36     O    0.37878   0.90736   0.12133   1.000
    O37     O    0.05047   0.98966   0.28730   1.000
    O38     O    0.74901   0.14000   0.33347   1.000
    O39     O    0.38077   0.04189   0.25448   1.000
    O40     O    0.37462   0.64059   0.15577   1.000
    O41     O    0.12853   0.68743   0.52831   1.000
    O42     O    0.35737   0.62440   0.55606   1.000
    O43     O    0.16896   0.25448   0.31571   1.000
    O44     O    0.87507   0.59335   0.37444   1.000
    O45     O    0.54973   0.51057   0.21250   1.000
    O46     O    0.24379   0.36434   0.16192   1.000
    O47     O    0.87971   0.45885   0.24471   1.000
loop_
    _geom_bond_atom_site_label_1
    _geom_bond_atom_site_label_2
    _geom_bond_distance
    _geom_bond_site_symmetry_2
    _ccdc_geom_bond_type
    C8     O34       1.26441  1_554   S
    C8     O33       1.27670  1_554   S
    O17    C0        1.27591  1_554   S
    O18    C0        1.26421  1_554   S
    O36    C9        1.27626      .   S
    O40    C15       1.29086      .   S
    O46    C14       1.23567      .   S
    O35    C10       1.30566      .   S
    C9     O39       1.28532  1_565   S
    O45    C15       1.25525      .   S
    C10    O38       1.23694      .   S
    O47    C13       1.26316      .   S
    C14    O43       1.30694      .   S
    C11    O37       1.26442  1_655   S
    C11    O32       1.29133      .   S
    C13    O44       1.27675      .   S
    O26    C4        1.26450      .   S
    O25    C4        1.27577      .   S
    C12    O41       1.27550      .   S
    C12    O42       1.26424      .   S
    O28    C5        1.27681      .   S
    O16    C3        1.29082      .   S
    O22    C2        1.23644      .   S
    O27    C6        1.30662      .   S
    C5     O31       1.26317      .   S
    O21    C3        1.24701  1_655   S
    C6     O30       1.23605      .   S
    O23    C1        1.24272  1_565   S
    C2     O19       1.30611      .   S
    C7     O29       1.25534      .   S
    C7     O24       1.29078      .   S
    C1     O20       1.27601      .   S
