# CIF file generated by openbabel 2.4.90, see http://openbabel.sf.net
data_I
_chemical_name_common ''
_cell_length_a 9.2075
_cell_length_b 11.1285
_cell_length_c 12.191
_cell_angle_alpha 85.613
_cell_angle_beta 89.858
_cell_angle_gamma 89.891
_space_group_name_H-M_alt 'P 1'
_space_group_name_Hall 'P 1'
loop_
    _symmetry_equiv_pos_as_xyz
    x,y,z
loop_
    _atom_site_label
    _atom_site_type_symbol
    _atom_site_fract_x
    _atom_site_fract_y
    _atom_site_fract_z
    _atom_site_occupancy
    Zn0     Zn   0.51431   0.23978   0.92121   1.000
    Zn1     Zn   0.68708   0.38011   0.27700   1.000
    Zn2     Zn   0.01857   0.26046   0.57414   1.000
    Zn3     Zn   0.81334   0.88001   0.77735   1.000
    Zn4     Zn   0.48667   0.76065   0.07451   1.000
    Zn5     Zn   0.31324   0.62049   0.71857   1.000
    Zn6     Zn   0.98120   0.73954   0.42187   1.000
    Zn7     Zn   0.18722   0.11975   0.22211   1.000
