# CIF file generated by openbabel 2.4.90, see http://openbabel.sf.net
data_I
_chemical_name_common ''
_cell_length_a 9.2075
_cell_length_b 11.1285
_cell_length_c 12.191
_cell_angle_alpha 85.613
_cell_angle_beta 89.858
_cell_angle_gamma 89.891
_space_group_name_H-M_alt 'P 1'
_space_group_name_Hall 'P 1'
loop_
    _symmetry_equiv_pos_as_xyz
    x,y,z
loop_
    _atom_site_label
    _atom_site_type_symbol
    _atom_site_fract_x
    _atom_site_fract_y
    _atom_site_fract_z
    _atom_site_occupancy
    Zr0     Zr   0.18722   0.11975   0.22211   1.000
    Zr1     Zr   0.51431   0.23978   0.92121   1.000
    Zr2     Zr   0.68708   0.38011   0.27700   1.000
    Zr3     Zr   0.01857   0.26046   0.57414   1.000
    Zr4     Zr   0.81334   0.88001   0.77735   1.000
    Zr5     Zr   0.48667   0.76065   0.07451   1.000
    Zr6     Zr   0.31324   0.62049   0.71857   1.000
    Zr7     Zr   0.98120   0.73954   0.42187   1.000
    Zr8     Zr   0.24531   0.15395   0.99555   1.000
    Zr9     Zr   0.56050   0.03752   0.79984   1.000
    Zr10    Zr   0.29287   0.85340   0.76092   1.000
    Zr11    Zr   0.07024   0.05907   0.72689   1.000
    Zr12    Zr   0.74787   0.34570   0.50213   1.000
    Zr13    Zr   0.06320   0.46179   0.69655   1.000
    Zr14    Zr   0.79482   0.64633   0.73695   1.000
    Zr15    Zr   0.57116   0.44060   0.76979   1.000
    Zr16    Zr   0.75721   0.84618   0.00283   1.000
    Zr17    Zr   0.43897   0.96192   0.19753   1.000
    Zr18    Zr   0.70773   0.14805   0.23671   1.000
    Zr19    Zr   0.92859   0.94141   0.27242   1.000
    Zr20    Zr   0.25272   0.65629   0.49343   1.000
    Zr21    Zr   0.93719   0.53855   0.29886   1.000
    Zr22    Zr   0.20550   0.35456   0.25940   1.000
    Zr23    Zr   0.42907   0.56014   0.22586   1.000
    Zr24    Zr   0.12639   0.13884   0.65694   1.000
    Zr25    Zr   0.36907   0.18704   0.02907   1.000
    Zr26    Zr   0.14258   0.12012   0.05956   1.000
    Zr27    Zr   0.33219   0.75288   0.81514   1.000
    Zr28    Zr   0.62189   0.09306   0.87485   1.000
    Zr29    Zr   0.95033   0.01069   0.71294   1.000
    Zr30    Zr   0.25141   0.86420   0.66427   1.000
    Zr31    Zr   0.62034   0.95948   0.74761   1.000
    Zr32    Zr   0.62567   0.36006   0.83976   1.000
    Zr33    Zr   0.87176   0.31348   0.46747   1.000
    Zr34    Zr   0.64380   0.37910   0.43946   1.000
    Zr35    Zr   0.83095   0.74685   0.68124   1.000
    Zr36    Zr   0.12504   0.40682   0.62094   1.000
    Zr37    Zr   0.45012   0.48964   0.78298   1.000
    Zr38    Zr   0.75650   0.63585   0.83445   1.000
    Zr39    Zr   0.12100   0.54141   0.75062   1.000
    Zr40    Zr   0.87145   0.86171   0.34200   1.000
    Zr41    Zr   0.63400   0.81307   0.96809   1.000
    Zr42    Zr   0.86108   0.87936   0.93963   1.000
    Zr43    Zr   0.66816   0.24733   0.18065   1.000
    Zr44    Zr   0.37878   0.90736   0.12133   1.000
    Zr45    Zr   0.05047   0.98966   0.28730   1.000
    Zr46    Zr   0.74901   0.14000   0.33347   1.000
    Zr47    Zr   0.38077   0.04189   0.25448   1.000
    Zr48    Zr   0.37462   0.64059   0.15577   1.000
    Zr49    Zr   0.12853   0.68743   0.52831   1.000
    Zr50    Zr   0.35737   0.62440   0.55606   1.000
    Zr51    Zr   0.16896   0.25448   0.31571   1.000
    Zr52    Zr   0.87507   0.59335   0.37444   1.000
    Zr53    Zr   0.54973   0.51057   0.21250   1.000
    Zr54    Zr   0.24379   0.36434   0.16192   1.000
    Zr55    Zr   0.87971   0.45885   0.24471   1.000
    O56     O    0.80915   0.86277   0.97123   1.000
    O57     O    0.69561   0.82962   0.98546   1.000
    O58     O    0.44169   0.21341   0.97514   1.000
    O59     O    0.30719   0.17050   0.01231   1.000
    O60     O    0.16490   0.11994   0.14083   1.000
    O61     O    0.19394   0.13704   0.02755   1.000
    O62     O    0.43273   0.83400   0.09792   1.000
    O63     O    0.43065   0.70062   0.11514   1.000
    O64     O    0.56034   0.78686   0.02130   1.000
    O65     O    0.40888   0.93464   0.15943   1.000
    O66     O    0.40185   0.60037   0.19082   1.000
    O67     O    0.22464   0.35945   0.21066   1.000
    O68     O    0.68794   0.19769   0.20868   1.000
    O69     O    0.67762   0.31372   0.22883   1.000
    O70     O    0.40987   0.00190   0.22600   1.000
    O71     O    0.48940   0.53536   0.21918   1.000
    O72     O    0.61841   0.44534   0.24475   1.000
    O73     O    0.28400   0.08082   0.23829   1.000
    O74     O    0.11885   0.05470   0.25471   1.000
    O75     O    0.17809   0.18712   0.26891   1.000
    O76     O    0.72837   0.14403   0.28509   1.000
    O77     O    0.78340   0.41948   0.26085   1.000
    O78     O    0.90845   0.49870   0.27178   1.000
    O79     O    0.18723   0.30452   0.28756   1.000
    O80     O    0.98953   0.96553   0.27986   1.000
    O81     O    0.90002   0.90156   0.30721   1.000
    O82     O    0.66544   0.37961   0.35823   1.000
    O83     O    0.90613   0.56595   0.33665   1.000
    O84     O    0.92633   0.80062   0.38193   1.000
    O85     O    0.92814   0.66644   0.39816   1.000
    O86     O    0.05486   0.71348   0.47509   1.000
    O87     O    0.69583   0.36240   0.47079   1.000
    O88     O    0.80981   0.32959   0.48480   1.000
    O89     O    0.94517   0.28697   0.52081   1.000
    O90     O    0.19063   0.67186   0.51087   1.000
    O91     O    0.30504   0.64035   0.52475   1.000
    O92     O    0.33531   0.62244   0.63732   1.000
    O93     O    0.07181   0.33364   0.59754   1.000
    O94     O    0.07248   0.19965   0.61554   1.000
    O95     O    0.09412   0.43431   0.65875   1.000
    O96     O    0.09832   0.09895   0.69191   1.000
    O97     O    0.27214   0.85880   0.71259   1.000
    O98     O    0.81289   0.69659   0.70910   1.000
    O99     O    0.82215   0.81343   0.72930   1.000
    O100    O    0.09210   0.50160   0.72358   1.000
    O101    O    0.01029   0.03488   0.71991   1.000
    O102    O    0.88183   0.94535   0.74514   1.000
    O103    O    0.21712   0.58095   0.73459   1.000
    O104    O    0.38168   0.55507   0.75077   1.000
    O105    O    0.32271   0.68668   0.76685   1.000
    O106    O    0.77566   0.64109   0.78570   1.000
    O107    O    0.71684   0.91974   0.76248   1.000
    O108    O    0.59042   0.99850   0.77373   1.000
    O109    O    0.31253   0.80314   0.78803   1.000
    O110    O    0.51064   0.46512   0.77638   1.000
    O111    O    0.59841   0.40033   0.80477   1.000
    O112    O    0.83721   0.87968   0.85849   1.000
    O113    O    0.59120   0.06529   0.83735   1.000
    O114    O    0.56999   0.29992   0.88048   1.000
    O115    O    0.56810   0.16642   0.89803   1.000
    N116    N    0.73530   0.92990   0.17097   1.000
    O117    O    0.65128   0.86118   0.15065   1.000
    O118    O    0.71955   0.01061   0.18812   1.000
    O119    O    0.62682   0.93976   0.19170   1.000
    O120    O    0.81064   0.94142   0.19469   1.000
    O121    O    0.75300   0.88766   0.11802   1.000
    N122    N    0.26466   0.06967   0.82803   1.000
    O123    O    0.37280   0.05971   0.80669   1.000
    O124    O    0.24773   0.11233   0.88070   1.000
    O125    O    0.34887   0.13874   0.84704   1.000
    O126    O    0.28078   0.98947   0.81082   1.000
    O127    O    0.18890   0.05869   0.80442   1.000
    N128    N    0.76779   0.42945   0.66968   1.000
    O129    O    0.78336   0.50982   0.68714   1.000
    O130    O    0.85243   0.36072   0.64980   1.000
    O131    O    0.75079   0.38704   0.61699   1.000
    O132    O    0.69147   0.44074   0.69300   1.000
    O133    O    0.87581   0.43938   0.69057   1.000
    N134    N    0.23249   0.57172   0.32600   1.000
    O135    O    0.21698   0.49127   0.30877   1.000
    O136    O    0.12452   0.56149   0.30503   1.000
    O137    O    0.14761   0.64008   0.34597   1.000
    O138    O    0.30882   0.56035   0.30270   1.000
    O139    O    0.24953   0.61439   0.37861   1.000
loop_
    _geom_bond_atom_site_label_1
    _geom_bond_atom_site_label_2
    _geom_bond_distance
    _geom_bond_site_symmetry_2
    _ccdc_geom_bond_type
    Zr16   O56       0.63220  1_554   S
    Zr42   O56       0.63220      .   S
    Zr16   O57       0.63835  1_554   S
    Zr41   O57       0.63835      .   S
    Zr25   O58       0.96671  1_554   S
    Zr1    O58       0.96671      .   S
    Zr25   O59       0.63796      .   S
    Zr8    O59       0.63796  1_556   S
    Zr26   O60       1.01228      .   S
    Zr0    O60       1.01228      .   S
    Zr26   O61       0.63211      .   S
    Zr8    O61       0.63211  1_556   S
    Zr5    O62       1.01387      .   S
    Zr44   O62       1.01387      .   S
    Zr5    O63       0.95247      .   S
    Zr48   O63       0.95247      .   S
    Zr5    O64       0.96720      .   S
    Zr41   O64       0.96720  1_556   S
    Zr44   O65       0.63813      .   S
    Zr17   O65       0.63813      .   S
    Zr48   O66       0.64543      .   S
    Zr23   O66       0.64543      .   S
    Zr54   O67       0.61783      .   S
    Zr22   O67       0.61783      .   S
    Zr43   O68       0.65283      .   S
    Zr18   O68       0.65283      .   S
    Zr43   O69       0.98244      .   S
    Zr2    O69       0.98244      .   S
    Zr17   O70       0.64266  1_565   S
    Zr47   O70       0.64266      .   S
    Zr53   O71       0.62762      .   S
    Zr23   O71       0.62762      .   S
    Zr53   O72       1.01842      .   S
    Zr2    O72       1.01842      .   S
    Zr0    O73       1.00344      .   S
    Zr47   O73       1.00344      .   S
    Zr0    O74       1.01721      .   S
    Zr45   O74       1.01721  1_565   S
    Zr0    O75       0.97960      .   S
    Zr51   O75       0.97960      .   S
    Zr18   O76       0.61847      .   S
    Zr46   O76       0.61847      .   S
    Zr55   O77       1.00229      .   S
    Zr2    O77       1.00229      .   S
    Zr55   O78       0.63158      .   S
    Zr21   O78       0.63158      .   S
    Zr22   O79       0.65347      .   S
    Zr51   O79       0.65347      .   S
    Zr19   O80       0.63221      .   S
    Zr45   O80       0.63221  1_455   S
    Zr19   O81       0.64566      .   S
    Zr40   O81       0.64566      .   S
    Zr2    O82       1.00922      .   S
    Zr34   O82       1.00922      .   S
    Zr21   O83       0.63837      .   S
    Zr52   O83       0.63837      .   S
    Zr40   O84       0.95062      .   S
    Zr7    O84       0.95062      .   S
    Zr52   O85       1.01103      .   S
    Zr7    O85       1.01103      .   S
    Zr7    O86       0.96835  1_655   S
    Zr49   O86       0.96835      .   S
    Zr34   O87       0.63225      .   S
    Zr12   O87       0.63225      .   S
    Zr33   O88       0.63789      .   S
    Zr12   O88       0.63789      .   S
    Zr33   O89       0.96884      .   S
    Zr3    O89       0.96884  1_455   S
    Zr20   O90       0.63775      .   S
    Zr49   O90       0.63775      .   S
    Zr20   O91       0.63212      .   S
    Zr50   O91       0.63212      .   S
    Zr50   O92       1.00929      .   S
    Zr6    O92       1.00929      .   S
    Zr3    O93       1.01128      .   S
    Zr36   O93       1.01128      .   S
    Zr3    O94       0.95226      .   S
    Zr24   O94       0.95226      .   S
    Zr36   O95       0.63840      .   S
    Zr13   O95       0.63840      .   S
    Zr24   O96       0.64541      .   S
    Zr11   O96       0.64541      .   S
    Zr30   O97       0.61822      .   S
    Zr10   O97       0.61822      .   S
    Zr35   O98       0.65331      .   S
    Zr14   O98       0.65331      .   S
    Zr35   O99       0.98216      .   S
    Zr4    O99       0.98216      .   S
    Zr13   O100      0.63158      .   S
    Zr39   O100      0.63158      .   S
    Zr29   O101      0.62351  1_655   S
    Zr11   O101      0.62351      .   S
    Zr29   O102      1.01857  1_545   S
    Zr4    O102      1.01857      .   S
    Zr6    O103      1.00127      .   S
    Zr39   O103      1.00127      .   S
    Zr6    O104      1.01838      .   S
    Zr37   O104      1.01838      .   S
    Zr6    O105      0.98164      .   S
    Zr27   O105      0.98164      .   S
    Zr14   O106      0.61802      .   S
    Zr38   O106      0.61802      .   S
    Zr31   O107      1.00242      .   S
    Zr4    O107      1.00242      .   S
    Zr31   O108      0.62136      .   S
    Zr9    O108      0.62136  1_545   S
    Zr10   O109      0.65306      .   S
    Zr27   O109      0.65306      .   S
    Zr15   O110      0.62767      .   S
    Zr37   O110      0.62767      .   S
    Zr15   O111      0.64539      .   S
    Zr32   O111      0.64539      .   S
    Zr4    O112      1.01363      .   S
    Zr42   O112      1.01363      .   S
    Zr9    O113      0.63800      .   S
    Zr28   O113      0.63800      .   S
    Zr32   O114      0.95207      .   S
    Zr1    O114      0.95207      .   S
    Zr28   O115      1.01227      .   S
    Zr1    O115      1.01227      .   S
    N116   O117      1.13005      .   S
    Zr5    O117      2.14069      .   S
    N116   O118      0.94846  1_565   S
    Zr18   O118      1.68511      .   S
    N116   O119      1.03735      .   S
    Zr17   O119      1.74871      .   S
    N116   O120      0.76698      .   S
    Zr19   O120      1.44309      .   S
    N116   O121      0.84253      .   S
    Zr16   O121      1.51174      .   S
    N122   O123      1.03642      .   S
    Zr9    O123      1.74803      .   S
    N122   O124      0.84129      .   S
    Zr8    O124      1.50816      .   S
    N122   O125      1.12969      .   S
    Zr1    O125      2.13804      .   S
    N122   O126      0.94372  1_545   S
    Zr10   O126      1.67790      .   S
    N122   O127      0.76878      .   S
    Zr11   O127      1.44620      .   S
    N128   O129      0.94633      .   S
    Zr14   O129      1.68216      .   S
    N128   O130      1.12974      .   S
    Zr3    O130      2.13999  1_455   S
    N128   O131      0.84083      .   S
    Zr12   O131      1.50728      .   S
    N128   O132      0.77112      .   S
    Zr15   O132      1.44851      .   S
    N128   O133      1.03546      .   S
    Zr13   O133      1.74632  1_455   S
    N134   O135      0.94628      .   S
    Zr22   O135      1.68200      .   S
    N134   O136      1.03570      .   S
    Zr21   O136      1.74676  1_655   S
    N134   O137      1.12863      .   S
    Zr7    O137      2.13828  1_655   S
    N134   O138      0.77124      .   S
    Zr23   O138      1.44867      .   S
    N134   O139      0.84195      .   S
    Zr20   O139      1.50923      .   S
