# CIF file generated by openbabel 2.4.90, see http://openbabel.sf.net
data_I
_chemical_name_common ''
_cell_length_a 21.644
_cell_length_b 13.83
_cell_length_c 13.69
_cell_angle_alpha 90.487
_cell_angle_beta 89.967
_cell_angle_gamma 90.27
_space_group_name_H-M_alt 'P 1'
_space_group_name_Hall 'P 1'
loop_
    _symmetry_equiv_pos_as_xyz
    x,y,z
loop_
    _atom_site_label
    _atom_site_type_symbol
    _atom_site_fract_x
    _atom_site_fract_y
    _atom_site_fract_z
    _atom_site_occupancy
    C0      C    0.26252   0.29293   0.86958   1.000
    C1      C    0.76311   0.29350   0.86960   1.000
    C2      C    0.26260   0.20578   0.62932   1.000
    C3      C    0.76324   0.20632   0.62879   1.000
    N4      N    0.45855   0.36415   0.70940   1.000
    N5      N    0.95888   0.36471   0.70929   1.000
    N6      N    0.29155   0.70928   0.13439   1.000
    C7      C    0.01220   0.13126   0.79169   1.000
    C8      C    0.51290   0.13155   0.79140   1.000
    C9      C    0.01349   0.36876   0.70681   1.000
    C10     C    0.51318   0.36819   0.70692   1.000
    C11     C    0.23693   0.70654   0.13034   1.000
    C12     C    0.73751   0.70708   0.13039   1.000
    C13     C    0.23680   0.79373   0.37118   1.000
    C14     C    0.73743   0.79423   0.37064   1.000
    C15     C    0.48713   0.86847   0.20854   1.000
    C16     C    0.98783   0.86876   0.20820   1.000
    C17     C    0.48684   0.63183   0.29303   1.000
    C18     C    0.98658   0.63128   0.29310   1.000
    C19     C    0.12766   0.74731   0.75055   1.000
    C20     C    0.62709   0.74696   0.75038   1.000
    C21     C    0.37296   0.25305   0.24958   1.000
    C22     C    0.87237   0.25272   0.24941   1.000
    N23     N    0.20789   0.29012   0.86559   1.000
    N24     N    0.70849   0.29076   0.86555   1.000
    N25     N    0.20798   0.20888   0.63257   1.000
    N26     N    0.70863   0.20967   0.63200   1.000
    N27     N    0.45829   0.13573   0.78983   1.000
    N28     N    0.95760   0.13523   0.79019   1.000
    N29     N    0.79214   0.70988   0.13438   1.000
    N30     N    0.29141   0.79039   0.36794   1.000
    N31     N    0.79205   0.79112   0.36739   1.000
    N32     N    0.04243   0.86479   0.20970   1.000
    N33     N    0.54174   0.86429   0.21013   1.000
    N34     N    0.04119   0.63531   0.29067   1.000
    N35     N    0.54147   0.63587   0.29051   1.000
loop_
    _geom_bond_atom_site_label_1
    _geom_bond_atom_site_label_2
    _geom_bond_distance
    _geom_bond_site_symmetry_2
    _ccdc_geom_bond_type
    C11    N6        1.18390      .   S
    C12    N29       1.18401      .   S
    C16    N32       1.18358  1_655   S
    C15    N33       1.18384      .   S
    N35    C17       1.18390      .   S
    N34    C18       1.18347  1_455   S
    N31    C14       1.18400      .   S
    N30    C13       1.18391      .   S
    C3     N26       1.18390      .   S
    C2     N25       1.18401      .   S
    C9     N5        1.18350  1_455   S
    C10    N4        1.18389      .   S
    N27    C8        1.18382      .   S
    N28    C7        1.18358  1_655   S
    N24    C1        1.18392      .   S
    N23    C0        1.18401      .   S
