# CIF file generated by openbabel 2.4.90, see http://openbabel.sf.net
data_I
_chemical_name_common ''
_cell_length_a 21.644
_cell_length_b 13.83
_cell_length_c 13.69
_cell_angle_alpha 90.487
_cell_angle_beta 89.967
_cell_angle_gamma 90.27
_space_group_name_H-M_alt 'P 1'
_space_group_name_Hall 'P 1'
loop_
    _symmetry_equiv_pos_as_xyz
    x,y,z
loop_
    _atom_site_label
    _atom_site_type_symbol
    _atom_site_fract_x
    _atom_site_fract_y
    _atom_site_fract_z
    _atom_site_occupancy
    H0      H    0.25745   0.47048   0.76930   1.000
    H1      H    0.75775   0.47086   0.76952   1.000
    H2      H    0.25146   0.67980   0.53601   1.000
    H3      H    0.75106   0.67956   0.53573   1.000
    H4      H    0.34274   0.59833   0.46363   1.000
    H5      H    0.84206   0.59770   0.46277   1.000
    H6      H    0.38830   0.45512   0.54739   1.000
    H7      H    0.88781   0.45467   0.54649   1.000
    H8      H    0.20120   0.75686   0.64480   1.000
    H9      H    0.70045   0.75687   0.64433   1.000
    H10     H    0.14022   0.67683   0.60792   1.000
    H11     H    0.63990   0.67571   0.60818   1.000
    H12     H    0.25893   0.02373   0.72944   1.000
    H13     H    0.75787   0.02413   0.72968   1.000
    H14     H    0.25218   0.81719   0.96527   1.000
    H15     H    0.75134   0.81718   0.96515   1.000
    H16     H    0.34157   0.90363   0.03950   1.000
    H17     H    0.84086   0.90337   0.03929   1.000
    H18     H    0.38649   0.04774   0.95530   1.000
    H19     H    0.88576   0.04757   0.95514   1.000
    H20     H    0.20158   0.73637   0.85552   1.000
    H21     H    0.70107   0.73649   0.85535   1.000
    H22     H    0.14207   0.81818   0.89263   1.000
    H23     H    0.64125   0.81768   0.89260   1.000
    H24     H    0.00619   0.22934   0.97248   1.000
    H25     H    0.50702   0.22921   0.97295   1.000
    H26     H    0.99685   0.46420   0.18319   1.000
    H27     H    0.49744   0.46466   0.18290   1.000
    H28     H    0.08854   0.53615   0.10220   1.000
    H29     H    0.58891   0.53679   0.10150   1.000
    H30     H    0.13589   0.45148   0.95831   1.000
    H31     H    0.63627   0.45191   0.95775   1.000
    H32     H    0.44654   0.35818   0.26093   1.000
    H33     H    0.94610   0.35755   0.26078   1.000
    H34     H    0.38716   0.39223   0.17734   1.000
    H35     H    0.88659   0.39211   0.17760   1.000
    H36     H    0.00731   0.27273   0.52517   1.000
    H37     H    0.50831   0.27307   0.52499   1.000
    H38     H    0.99404   0.03860   0.31411   1.000
    H39     H    0.49441   0.03861   0.31442   1.000
    H40     H    0.08489   0.96455   0.39416   1.000
    H41     H    0.58503   0.96411   0.39466   1.000
    H42     H    0.13373   0.04776   0.53798   1.000
    H43     H    0.63407   0.04725   0.53835   1.000
    H44     H    0.44516   0.14676   0.23740   1.000
    H45     H    0.94470   0.14658   0.23721   1.000
    H46     H    0.38550   0.11342   0.32120   1.000
    H47     H    0.88496   0.11290   0.32070   1.000
    H48     H    0.24233   0.52918   0.23046   1.000
    H49     H    0.74257   0.52953   0.23065   1.000
    H50     H    0.24899   0.32046   0.46423   1.000
    H51     H    0.74859   0.32025   0.46396   1.000
    H52     H    0.15800   0.40234   0.53719   1.000
    H53     H    0.65731   0.40174   0.53636   1.000
    H54     H    0.11226   0.54537   0.45347   1.000
    H55     H    0.61174   0.54493   0.45259   1.000
    H56     H    0.29960   0.24315   0.35563   1.000
    H57     H    0.79883   0.24316   0.35517   1.000
    H58     H    0.36015   0.32428   0.39178   1.000
    H59     H    0.85981   0.32321   0.39200   1.000
    H60     H    0.24216   0.97590   0.27028   1.000
    H61     H    0.74109   0.97630   0.27052   1.000
    H62     H    0.24869   0.18285   0.03481   1.000
    H63     H    0.74784   0.18284   0.03469   1.000
    H64     H    0.15917   0.09667   0.96067   1.000
    H65     H    0.65846   0.09639   0.96042   1.000
    H66     H    0.11427   0.95246   0.04481   1.000
    H67     H    0.61354   0.95228   0.04465   1.000
    H68     H    0.29898   0.26353   0.14460   1.000
    H69     H    0.79845   0.26366   0.14443   1.000
    H70     H    0.35879   0.18232   0.10730   1.000
    H71     H    0.85796   0.18184   0.10733   1.000
    H72     H    0.49301   0.77081   0.02699   1.000
    H73     H    0.99384   0.77068   0.02748   1.000
    H74     H    0.50260   0.53534   0.81699   1.000
    H75     H    0.00000   0.53581   0.81678   1.000
    H76     H    0.41114   0.46321   0.89848   1.000
    H77     H    0.91150   0.46387   0.89777   1.000
    H78     H    0.36379   0.54809   0.04223   1.000
    H79     H    0.86414   0.54854   0.04166   1.000
    H80     H    0.05393   0.64246   0.73919   1.000
    H81     H    0.55352   0.64181   0.73903   1.000
    H82     H    0.11344   0.60792   0.82230   1.000
    H83     H    0.61288   0.60778   0.82260   1.000
    C84     C    0.97612   0.70297   0.99694   1.000
    C85     C    0.50386   0.66087   0.91458   1.000
    C86     C    0.00000   0.66105   0.91475   1.000
    C87     C    0.48152   0.57242   0.87880   1.000
    H88     H    0.49172   0.72693   0.47498   1.000
    H89     H    0.99271   0.72729   0.47481   1.000
    H90     H    0.50563   0.96140   0.68555   1.000
    H91     H    0.00000   0.96143   0.68585   1.000
    H92     H    0.41501   0.03591   0.60531   1.000
    H93     H    0.91514   0.03549   0.60579   1.000
    H94     H    0.36597   0.95277   0.46161   1.000
    H95     H    0.86630   0.95228   0.46197   1.000
    H96     H    0.05533   0.85345   0.76276   1.000
    H97     H    0.55490   0.85325   0.76252   1.000
    H98     H    0.11507   0.88712   0.67918   1.000
    H99     H    0.61455   0.88658   0.67865   1.000
    C100    C    0.27583   0.50051   0.70181   1.000
    C101    C    0.77593   0.50067   0.70180   1.000
    C102    C    0.24837   0.58236   0.66052   1.000
    C103    C    0.74837   0.58245   0.66050   1.000
    C104    C    0.27168   0.61808   0.57260   1.000
    C105    C    0.77137   0.61788   0.57227   1.000
    C106    C    0.32270   0.57187   0.53140   1.000
    C107    C    0.82222   0.57146   0.53070   1.000
    C108    C    0.34812   0.49228   0.57714   1.000
    C109    C    0.84776   0.49197   0.57653   1.000
    C110    C    0.16817   0.70184   0.67027   1.000
    C111    C    0.66780   0.70151   0.67020   1.000
    N112    N    0.07263   0.16328   0.53807   1.000
    N113    N    0.57331   0.16321   0.53814   1.000
    C114    C    0.27670   0.99544   0.79795   1.000
    C115    C    0.77572   0.99569   0.79808   1.000
    C116    C    0.24958   0.91304   0.83960   1.000
    C117    C    0.74864   0.91322   0.83964   1.000
    C118    C    0.27215   0.87942   0.92866   1.000
    C119    C    0.77130   0.87944   0.92859   1.000
    C120    C    0.32208   0.92837   0.97080   1.000
    C121    C    0.82131   0.92826   0.97067   1.000
    C122    C    0.34717   0.00843   0.92476   1.000
    C123    C    0.84636   0.00839   0.92468   1.000
    C124    C    0.16935   0.79208   0.83008   1.000
    C125    C    0.66862   0.79194   0.83000   1.000
    C126    C    0.02391   0.29706   0.00302   1.000
    C127    C    0.52464   0.29710   0.00324   1.000
    C128    C    0.99546   0.33897   0.08521   1.000
    C129    C    0.49618   0.33914   0.08537   1.000
    C130    C    0.01794   0.42720   0.12132   1.000
    C131    C    0.51853   0.42758   0.12115   1.000
    C132    C    0.06916   0.46815   0.07531   1.000
    C133    C    0.56961   0.46863   0.07486   1.000
    C134    C    0.09557   0.42184   0.99538   1.000
    C135    C    0.59604   0.42220   0.99502   1.000
    C136    C    0.41452   0.33130   0.20438   1.000
    C137    C    0.91394   0.33099   0.20429   1.000
    C138    C    0.02397   0.20470   0.49442   1.000
    C139    C    0.52477   0.20486   0.49440   1.000
    C140    C    0.99473   0.16359   0.41237   1.000
    C141    C    0.49539   0.16378   0.41247   1.000
    C142    C    0.01585   0.07498   0.37588   1.000
    C143    C    0.51629   0.07497   0.37614   1.000
    C144    C    0.06657   0.03285   0.42140   1.000
    C145    C    0.56689   0.03259   0.42176   1.000
    C146    C    0.09381   0.07838   0.50123   1.000
    C147    C    0.59425   0.07808   0.50151   1.000
    C148    C    0.41362   0.17396   0.29432   1.000
    C149    C    0.91303   0.17358   0.29402   1.000
    C150    C    0.22415   0.49937   0.29817   1.000
    C151    C    0.72420   0.49952   0.29815   1.000
    C152    C    0.25170   0.41758   0.33947   1.000
    C153    C    0.75166   0.41768   0.33944   1.000
    C154    C    0.22869   0.38214   0.42770   1.000
    C155    C    0.72836   0.38196   0.42737   1.000
    C156    C    0.17785   0.42858   0.46920   1.000
    C157    C    0.67734   0.42818   0.46858   1.000
    C158    C    0.15232   0.50807   0.42344   1.000
    C159    C    0.65193   0.50777   0.42284   1.000
    C160    C    0.33225   0.29849   0.32968   1.000
    C161    C    0.83186   0.29819   0.32969   1.000
    C162    C    0.22431   0.00434   0.20188   1.000
    C163    C    0.72332   0.00459   0.20200   1.000
    C164    C    0.25139   0.08681   0.16032   1.000
    C165    C    0.75044   0.08699   0.16030   1.000
    C166    C    0.22873   0.12059   0.07137   1.000
    C167    C    0.72788   0.12061   0.07129   1.000
    C168    C    0.17873   0.07177   0.02929   1.000
    C169    C    0.67794   0.07165   0.02915   1.000
    C170    C    0.15367   0.99165   0.07527   1.000
    C171    C    0.65286   0.99159   0.07500   1.000
    C172    C    0.33142   0.20807   0.16990   1.000
    C173    C    0.83068   0.20794   0.16988   1.000
    C174    C    0.47540   0.70291   0.99671   1.000
    C175    C    0.98209   0.57281   0.87864   1.000
    C176    C    0.43043   0.53137   0.92511   1.000
    C177    C    0.93088   0.53187   0.92466   1.000
    C178    C    0.40401   0.57781   0.00496   1.000
    C179    C    0.90446   0.57817   0.00458   1.000
    C180    C    0.08609   0.66903   0.79567   1.000
    C181    C    0.58552   0.66870   0.79558   1.000
    C182    C    0.47527   0.79515   0.50556   1.000
    C183    C    0.97605   0.79532   0.50555   1.000
    C184    C    0.50464   0.83623   0.58750   1.000
    C185    C    0.00000   0.83643   0.58760   1.000
    C186    C    0.48375   0.92504   0.62383   1.000
    C187    C    0.98418   0.92504   0.62409   1.000
    C188    C    0.43315   0.96743   0.57821   1.000
    C189    C    0.93346   0.96718   0.57856   1.000
    C190    C    0.40579   0.92193   0.49846   1.000
    C191    C    0.90622   0.92165   0.49873   1.000
    C192    C    0.08700   0.82644   0.70595   1.000
    C193    C    0.58643   0.82604   0.70563   1.000
    N194    N    0.32485   0.45630   0.66130   1.000
    N195    N    0.82480   0.45626   0.66108   1.000
    N196    N    0.32467   0.04225   0.83928   1.000
    N197    N    0.82377   0.04238   0.83930   1.000
    N198    N    0.07310   0.33733   0.95888   1.000
    N199    N    0.57370   0.33746   0.95884   1.000
    N200    N    0.17528   0.54377   0.33888   1.000
    N201    N    0.67518   0.54373   0.33860   1.000
    N202    N    0.17626   0.95765   0.16062   1.000
    N203    N    0.67535   0.95778   0.16068   1.000
    N204    N    0.42634   0.66256   0.04112   1.000
    N205    N    0.92693   0.66269   0.04108   1.000
    N206    N    0.42673   0.83680   0.46182   1.000
    N207    N    0.92739   0.83675   0.46189   1.000
    O208    O    0.20033   0.62113   0.71215   1.000
    O209    O    0.70058   0.62153   0.71248   1.000
    O210    O    0.20263   0.87159   0.78711   1.000
    O211    O    0.70161   0.87185   0.78724   1.000
    O212    O    0.44823   0.28779   0.12461   1.000
    O213    O    0.94740   0.28773   0.12417   1.000
    O214    O    0.44808   0.21638   0.37409   1.000
    O215    O    0.94732   0.21596   0.37400   1.000
    O216    O    0.29949   0.37849   0.28749   1.000
    O217    O    0.79969   0.37889   0.28780   1.000
    O218    O    0.29842   0.12817   0.21272   1.000
    O219    O    0.79739   0.12844   0.21285   1.000
    O220    O    0.05263   0.71229   0.87579   1.000
    O221    O    0.55180   0.71222   0.87533   1.000
    O222    O    0.05270   0.78406   0.62598   1.000
    O223    O    0.55195   0.78362   0.62588   1.000
loop_
    _geom_bond_atom_site_label_1
    _geom_bond_atom_site_label_2
    _geom_bond_distance
    _geom_bond_site_symmetry_2
    _ccdc_geom_bond_type
    C126   C128      1.40453  1_455   S
    C126   N198      1.34460  1_554   S
    C126   H24       1.09043  1_554   S
    C127   C129      1.40474      .   S
    C127   N199      1.34460  1_554   S
    C127   H25       1.09046  1_554   S
    C179   N205      1.35559      .   S
    C179   H79       1.08945      .   S
    C179   C177      1.38744  1_554   S
    C178   N204      1.35553      .   S
    C178   H78       1.08941      .   S
    C178   C176      1.38760  1_554   S
    H72    C174      1.09046  1_554   S
    H73    C84       1.09045  1_554   S
    C169   C167      1.39515      .   S
    C169   C171      1.38586  1_545   S
    C169   H65       1.08972  1_554   S
    C168   C166      1.39516      .   S
    C168   C170      1.38709  1_545   S
    C168   H64       1.08974  1_554   S
    H63    C167      1.08727      .   S
    H62    C166      1.08726      .   S
    H17    C121      1.08974  1_554   S
    H16    C120      1.08937  1_554   S
    N205   C84       1.34462  1_554   S
    N204   C174      1.34462  1_554   S
    H67    C171      1.08845      .   S
    H66    C170      1.08944      .   S
    C167   C165      1.39713      .   S
    C166   C164      1.39789      .   S
    C133   H29       1.08931      .   S
    C133   C131      1.39492      .   S
    C133   C135      1.38745  1_554   S
    C171   N203      1.35777      .   S
    C170   N202      1.35558      .   S
    C132   H28       1.08926      .   S
    C132   C130      1.39486      .   S
    C132   C134      1.38751  1_554   S
    C128   C130      1.39804  1_655   S
    C128   O213      1.36660      .   S
    C129   C131      1.39805      .   S
    C129   O212      1.36694      .   S
    H70    C172      1.09929      .   S
    H71    C173      1.09920      .   S
    C131   H27       1.08636      .   S
    C130   H26       1.08718  1_455   S
    O213   C137      1.44136      .   S
    O212   C136      1.44190      .   S
    H69    C173      1.10077      .   S
    H68    C172      1.10044      .   S
    C165   C163      1.40477      .   S
    C165   O219      1.36649      .   S
    C164   C162      1.40450      .   S
    C164   O218      1.36620      .   S
    N202   C162      1.34377  1_565   S
    N203   C163      1.34362  1_565   S
    C173   O219      1.44121      .   S
    C172   O218      1.44148      .   S
    H34    C136      1.09915      .   S
    H35    C137      1.09935      .   S
    C162   H60       1.09030  1_545   S
    C163   H61       1.09033  1_545   S
    C137   H33       1.10043      .   S
    C136   H32       1.10037      .   S
    H48    C150      1.09026      .   S
    H49    C151      1.09031      .   S
    H45    C149      1.10045      .   S
    H44    C148      1.10072      .   S
    O216   C160      1.44190      .   S
    O216   C152      1.36610      .   S
    O217   C161      1.44145      .   S
    O217   C153      1.36609      .   S
    C149   H47       1.09870      .   S
    C149   O215      1.44190      .   S
    C148   H46       1.09862      .   S
    C148   O214      1.44193      .   S
    C151   N201      1.34378      .   S
    C151   C153      1.40415      .   S
    C150   N200      1.34395      .   S
    C150   C152      1.40446      .   S
    H38    C142      1.08722  1_655   S
    H39    C143      1.08717      .   S
    C160   H56       1.10039      .   S
    C160   H58       1.09912      .   S
    C161   H57       1.10039      .   S
    C161   H59       1.09870      .   S
    N201   C159      1.35554      .   S
    N200   C158      1.35559      .   S
    C153   C155      1.39797      .   S
    C152   C154      1.39793      .   S
    O215   C140      1.36661      .   S
    O214   C141      1.36681      .   S
    C142   C140      1.39814  1_455   S
    C142   C144      1.39504      .   S
    C143   C141      1.39822      .   S
    C143   C145      1.39511      .   S
    H40    C144      1.08904  1_565   S
    H41    C145      1.08904  1_565   S
    C140   C138      1.40424  1_655   S
    C141   C139      1.40411      .   S
    C144   C146      1.38709      .   S
    C145   C147      1.38712      .   S
    C159   H55       1.08941      .   S
    C159   C157      1.38709      .   S
    C158   H54       1.08941      .   S
    C158   C156      1.38721      .   S
    C155   H51       1.08720      .   S
    C155   C157      1.39498      .   S
    C154   H50       1.08722      .   S
    C154   C156      1.39497      .   S
    H94    C190      1.08943      .   S
    N206   C190      1.35567      .   S
    N206   C182      1.34406      .   S
    N207   C191      1.35572      .   S
    N207   C183      1.34423      .   S
    H95    C191      1.08939      .   S
    H5     C107      1.08848      .   S
    H4     C106      1.08932      .   S
    C157   H53       1.08933      .   S
    C156   H52       1.08923      .   S
    H89    C183      1.09023      .   S
    H88    C182      1.09020      .   S
    C139   H37       1.09025      .   S
    C139   N113      1.34408      .   S
    C138   H36       1.09025      .   S
    C138   N112      1.34421      .   S
    C190   C188      1.38712      .   S
    C191   C189      1.38708      .   S
    C146   H42       1.08936      .   S
    C146   N112      1.35570      .   S
    C147   N113      1.35561      .   S
    C147   H43       1.08937      .   S
    C183   C185      1.35666  1_655   S
    C182   C184      1.40423      .   S
    C107   C105      1.39534      .   S
    C107   C109      1.38765      .   S
    C106   C104      1.39497      .   S
    C106   C108      1.38713      .   S
    H3     C105      1.08727      .   S
    H2     C104      1.08720      .   S
    H7     C109      1.08946      .   S
    H6     C108      1.08943      .   S
    C105   C103      1.39788      .   S
    C104   C102      1.39800      .   S
    C109   N195      1.35543      .   S
    C108   N194      1.35475      .   S
    C188   H92       1.08905  1_565   S
    C188   C186      1.39510      .   S
    C189   H93       1.08902  1_565   S
    C189   C187      1.39505      .   S
    C184   C186      1.39821      .   S
    C184   O223      1.36680      .   S
    C185   C187      1.36458  1_455   S
    C185   O222      1.45487      .   S
    H10    C110      1.09908      .   S
    H11    C111      1.09830      .   S
    C186   H90       1.08716      .   S
    C187   H91       1.03771  1_655   S
    O223   C193      1.44188      .   S
    O222   C192      1.44190      .   S
    H9     C111      1.10002      .   S
    H8     C110      1.10037      .   S
    C103   C101      1.40445      .   S
    C103   O209      1.36612      .   S
    C102   C100      1.40416      .   S
    C102   O208      1.36607      .   S
    N195   C101      1.34399      .   S
    N194   C100      1.34417      .   S
    C111   O209      1.44241      .   S
    C110   O208      1.44143      .   S
    H99    C193      1.09901      .   S
    H98    C192      1.09907      .   S
    C101   H1        1.09032      .   S
    C100   H0        1.09029      .   S
    C193   H97       1.10038      .   S
    C192   H96       1.10040      .   S
    H12    C114      1.09025  1_545   S
    H13    C115      1.09030  1_545   S
    H81    C181      1.10033      .   S
    H80    C180      1.10033      .   S
    O210   C124      1.44121      .   S
    O210   C116      1.36607      .   S
    O211   C125      1.44116      .   S
    O211   C117      1.36621      .   S
    C181   H83       1.09896      .   S
    C181   O221      1.44191      .   S
    C180   H82       1.09906      .   S
    C180   O220      1.44140      .   S
    C114   N196      1.34367  1_565   S
    C114   C116      1.40450      .   S
    C115   N197      1.34358  1_565   S
    C115   C117      1.40448      .   S
    H75    C175      1.05989  1_455   S
    H74    C87       1.08700      .   S
    C125   H21       1.10067      .   S
    C125   H23       1.09927      .   S
    C124   H20       1.10075      .   S
    C124   H22       1.09916      .   S
    N196   C122      1.35543      .   S
    N197   C123      1.35595      .   S
    C116   C118      1.39775      .   S
    C117   C119      1.39790      .   S
    O221   C85       1.36694      .   S
    O220   C86       1.44299      .   S
    C175   C86       1.36721  1_655   S
    C175   C177      1.39491      .   S
    C87    C85       1.39808      .   S
    C87    C176      1.39501      .   S
    H77    C177      1.08930      .   S
    H76    C176      1.08929      .   S
    C85    C174      1.40475      .   S
    C86    C84       1.36398  1_455   S
    C123   H19       1.08947      .   S
    C123   C121      1.38712  1_545   S
    C122   H18       1.08945      .   S
    C122   C120      1.38704  1_545   S
    C119   H15       1.08725      .   S
    C119   C121      1.39518      .   S
    C118   H14       1.08733      .   S
    C118   C120      1.39516      .   S
    H31    C135      1.08946      .   S
    H30    C134      1.08938      .   S
    N199   C135      1.35557      .   S
    N198   C134      1.35556      .   S
