# CIF file generated by openbabel 2.4.90, see http://openbabel.sf.net
data_I
_chemical_name_common ''
_cell_length_a 21.644
_cell_length_b 13.83
_cell_length_c 13.69
_cell_angle_alpha 90.487
_cell_angle_beta 89.967
_cell_angle_gamma 90.27
_space_group_name_H-M_alt 'P 1'
_space_group_name_Hall 'P 1'
loop_
    _symmetry_equiv_pos_as_xyz
    x,y,z
loop_
    _atom_site_label
    _atom_site_type_symbol
    _atom_site_fract_x
    _atom_site_fract_y
    _atom_site_fract_z
    _atom_site_occupancy
    Lv0     Lv   0.37296   0.25305   0.24958   1.000
    Lv1     Lv   0.62709   0.74696   0.75038   1.000
    Lv2     Lv   0.87237   0.25272   0.24941   1.000
    Lv3     Lv   0.23521   0.29153   0.86758   1.000
    Lv4     Lv   0.12766   0.74731   0.75055   1.000
    Lv5     Lv   0.98619   0.36674   0.70805   1.000
    Lv6     Lv   0.73593   0.20799   0.63039   1.000
    Lv7     Lv   0.76482   0.70848   0.13239   1.000
    Lv8     Lv   0.98490   0.13325   0.79094   1.000
    Lv9     Lv   0.51416   0.63385   0.29177   1.000
    Lv10    Lv   0.48587   0.36617   0.70816   1.000
    Lv11    Lv   0.01388   0.63330   0.29189   1.000
    Lv12    Lv   0.26424   0.70791   0.13237   1.000
    Lv13    Lv   0.26410   0.79206   0.36956   1.000
    Lv14    Lv   0.48560   0.13364   0.79061   1.000
    Lv15    Lv   0.51443   0.86638   0.20934   1.000
    Lv16    Lv   0.23529   0.20733   0.63094   1.000
    Lv17    Lv   0.73580   0.29213   0.86757   1.000
    Lv18    Lv   0.01513   0.86677   0.20895   1.000
    Lv19    Lv   0.76474   0.79267   0.36901   1.000
