# CIF file generated by openbabel 2.4.90, see http://openbabel.sf.net
data_I
_chemical_name_common ''
_cell_length_a 21.644
_cell_length_b 13.83
_cell_length_c 13.69
_cell_angle_alpha 90.487
_cell_angle_beta 89.967
_cell_angle_gamma 90.27
_space_group_name_H-M_alt 'P 1'
_space_group_name_Hall 'P 1'
loop_
    _symmetry_equiv_pos_as_xyz
    x,y,z
loop_
    _atom_site_label
    _atom_site_type_symbol
    _atom_site_fract_x
    _atom_site_fract_y
    _atom_site_fract_z
    _atom_site_occupancy
    Cu0     Cu   0.87136   0.34164   0.72027   1.000
    Cu1     Cu   0.37062   0.15803   0.77953   1.000
    Cu2     Cu   0.86986   0.15796   0.77962   1.000
    Cu3     Cu   0.12022   0.27917   0.84213   1.000
    Cu4     Cu   0.62100   0.27923   0.84203   1.000
    Cu5     Cu   0.12027   0.22066   0.65449   1.000
    Cu6     Cu   0.62111   0.22078   0.65446   1.000
    Cu7     Cu   0.12871   0.65838   0.27960   1.000
    Cu8     Cu   0.62922   0.65861   0.27953   1.000
    Cu9     Cu   0.13017   0.84206   0.22033   1.000
    Cu10    Cu   0.62941   0.84199   0.22043   1.000
    Cu11    Cu   0.37903   0.72079   0.15792   1.000
    Cu12    Cu   0.87981   0.72085   0.15784   1.000
    Cu13    Cu   0.37893   0.77924   0.34550   1.000
    Cu14    Cu   0.87976   0.77936   0.34547   1.000
    Cu15    Cu   0.37081   0.34141   0.72042   1.000
    S16     S    0.33883   0.29613   0.87780   1.000
    S17     S    0.83941   0.29646   0.87772   1.000
    S18     S    0.33893   0.20237   0.62201   1.000
    S19     S    0.83955   0.20259   0.62174   1.000
    S20     S    0.08850   0.12332   0.79310   1.000
    S21     S    0.58919   0.12337   0.79297   1.000
    S22     S    0.08981   0.37664   0.70420   1.000
    S23     S    0.58951   0.37638   0.70418   1.000
    S24     S    0.16063   0.70357   0.12222   1.000
    S25     S    0.66120   0.70390   0.12216   1.000
    S26     S    0.16048   0.79746   0.37821   1.000
    S27     S    0.66110   0.79765   0.37790   1.000
    S28     S    0.41084   0.87665   0.20699   1.000
    S29     S    0.91153   0.87670   0.20683   1.000
    S30     S    0.41052   0.62365   0.29578   1.000
    S31     S    0.91026   0.62340   0.29570   1.000
    Ts32    Ts   0.90054   0.34933   0.71661   1.000
    Ts33    Ts   0.85584   0.37985   0.70054   1.000
    Ts34    Ts   0.35530   0.11943   0.79945   1.000
    Ts35    Ts   0.39984   0.15060   0.78296   1.000
    Ts36    Ts   0.85450   0.11944   0.79951   1.000
    Ts37    Ts   0.89910   0.15039   0.78314   1.000
    Ts38    Ts   0.14945   0.28282   0.84995   1.000
    Ts39    Ts   0.10451   0.29855   0.88105   1.000
    Ts40    Ts   0.65017   0.28307   0.84987   1.000
    Ts41    Ts   0.60524   0.29864   0.88097   1.000
    Ts42    Ts   0.10439   0.20153   0.61568   1.000
    Ts43    Ts   0.14951   0.21673   0.64718   1.000
    Ts44    Ts   0.60517   0.20159   0.61569   1.000
    Ts45    Ts   0.65028   0.21708   0.64697   1.000
    Ts46    Ts   0.14423   0.62018   0.29936   1.000
    Ts47    Ts   0.09954   0.65069   0.28329   1.000
    Ts48    Ts   0.64454   0.62032   0.29922   1.000
    Ts49    Ts   0.59997   0.65103   0.28319   1.000
    Ts50    Ts   0.14553   0.88059   0.20043   1.000
    Ts51    Ts   0.10092   0.84964   0.21679   1.000
    Ts52    Ts   0.64472   0.88059   0.20051   1.000
    Ts53    Ts   0.60018   0.84942   0.21700   1.000
    Ts54    Ts   0.34987   0.71696   0.15008   1.000
    Ts55    Ts   0.39480   0.70138   0.11899   1.000
    Ts56    Ts   0.85058   0.71720   0.15002   1.000
    Ts57    Ts   0.89551   0.70147   0.11892   1.000
    Ts58    Ts   0.34975   0.78295   0.35298   1.000
    Ts59    Ts   0.39486   0.79843   0.38427   1.000
    Ts60    Ts   0.85052   0.78328   0.35278   1.000
    Ts61    Ts   0.89564   0.79849   0.38428   1.000
    Ts62    Ts   0.40006   0.34899   0.71675   1.000
    Ts63    Ts   0.35549   0.37971   0.70071   1.000
    Ts64    Ts   0.31339   0.29506   0.87506   1.000
    Ts65    Ts   0.81397   0.29548   0.87501   1.000
    Ts66    Ts   0.31349   0.20351   0.62445   1.000
    Ts67    Ts   0.81412   0.20383   0.62409   1.000
    Ts68    Ts   0.06307   0.12597   0.79263   1.000
    Ts69    Ts   0.56376   0.12610   0.79245   1.000
    Ts70    Ts   0.06437   0.37401   0.70507   1.000
    Ts71    Ts   0.56407   0.37365   0.70509   1.000
    Ts72    Ts   0.18606   0.70456   0.12493   1.000
    Ts73    Ts   0.68664   0.70496   0.12490   1.000
    Ts74    Ts   0.18592   0.79622   0.37587   1.000
    Ts75    Ts   0.68654   0.79651   0.37548   1.000
    Ts76    Ts   0.43627   0.87392   0.20751   1.000
    Ts77    Ts   0.93696   0.87405   0.20729   1.000
    Ts78    Ts   0.43596   0.62637   0.29486   1.000
    Ts79    Ts   0.93570   0.62602   0.29483   1.000
loop_
    _geom_bond_atom_site_label_1
    _geom_bond_atom_site_label_2
    _geom_bond_distance
    _geom_bond_site_symmetry_2
    _ccdc_geom_bond_type
    S25    Cu10      2.42871      .   S
    S25    Cu8       2.35159      .   S
    S24    Cu9       2.42371      .   S
    S24    Cu7       2.35093      .   S
    Cu12   S29       2.35138      .   S
    Cu12   S31       2.42201      .   S
    Cu12   Cu14      2.68651      .   S
    Cu11   S28       2.35232      .   S
    Cu11   S30       2.42582      .   S
    Cu11   Cu13      2.68563      .   S
    S29    Cu14      2.43329      .   S
    S28    Cu13      2.43325      .   S
    Cu9    Cu7       2.67328      .   S
    Cu9    S26       2.34748      .   S
    Cu10   Cu8       2.66858      .   S
    Cu10   S27       2.34991      .   S
    Cu8    S27       2.43552      .   S
    Cu7    S26       2.43705      .   S
    S31    Cu14      2.35381      .   S
    S30    Cu13      2.35577      .   S
    S19    Cu0       2.43648      .   S
    S19    Cu2       2.34751      .   S
    S18    Cu15      2.43577      .   S
    S18    Cu1       2.35053      .   S
    Cu6    S23       2.35580      .   S
    Cu6    S21       2.43325      .   S
    Cu6    Cu4       2.68549      .   S
    Cu5    S22       2.35356      .   S
    Cu5    S20       2.43291      .   S
    Cu5    Cu3       2.68664      .   S
    S23    Cu4       2.42578      .   S
    S22    Cu3       2.42265      .   S
    Cu0    Cu2       2.67363      .   S
    Cu0    S17       2.35202      .   S
    Cu15   Cu1       2.66862      .   S
    Cu15   S16       2.35166      .   S
    Cu1    S16       2.42869      .   S
    Cu2    S17       2.42367      .   S
    S21    Cu4       2.35227      .   S
    S20    Cu3       2.35144      .   S
    Cu0    Ts32      0.64183      .   S
    Cu0    Ts33      0.68501      .   S
    Cu1    Ts34      0.68544      .   S
    Cu1    Ts35      0.64312      .   S
    Cu2    Ts36      0.68509      .   S
    Cu2    Ts37      0.64399      .   S
    Cu3    Ts38      0.64326      .   S
    Cu3    Ts39      0.68525      .   S
    Cu4    Ts40      0.64218      .   S
    Cu4    Ts41      0.68620      .   S
    Cu5    Ts42      0.68360      .   S
    Cu5    Ts43      0.64304      .   S
    Cu6    Ts44      0.68414      .   S
    Cu6    Ts45      0.64188      .   S
    Cu7    Ts46      0.68513      .   S
    Cu7    Ts47      0.64189      .   S
    Cu8    Ts48      0.68360      .   S
    Cu8    Ts49      0.64318      .   S
    Cu9    Ts50      0.68517      .   S
    Cu9    Ts51      0.64400      .   S
    Cu10   Ts52      0.68545      .   S
    Cu10   Ts53      0.64310      .   S
    Cu11   Ts54      0.64215      .   S
    Cu11   Ts55      0.68621      .   S
    Cu12   Ts56      0.64325      .   S
    Cu12   Ts57      0.68527      .   S
    Cu13   Ts58      0.64184      .   S
    Cu13   Ts59      0.68415      .   S
    Cu14   Ts60      0.64303      .   S
    Cu14   Ts61      0.68359      .   S
    Cu15   Ts62      0.64321      .   S
    Cu15   Ts63      0.68371      .   S
    S16    Ts64      0.55198      .   S
    S17    Ts65      0.55184      .   S
    S18    Ts66      0.55199      .   S
    S19    Ts67      0.55183      .   S
    S20    Ts68      0.55191      .   S
    S21    Ts69      0.55194      .   S
    S22    Ts70      0.55176      .   S
    S23    Ts71      0.55194      .   S
    S24    Ts72      0.55184      .   S
    S25    Ts73      0.55198      .   S
    S26    Ts74      0.55183      .   S
    S27    Ts75      0.55199      .   S
    S28    Ts76      0.55193      .   S
    S29    Ts77      0.55190      .   S
    S30    Ts78      0.55194      .   S
    S31    Ts79      0.55176      .   S
