# CIF file generated by openbabel 2.4.90, see http://openbabel.sf.net
data_I
_chemical_name_common ''
_cell_length_a 21.644
_cell_length_b 13.83
_cell_length_c 13.69
_cell_angle_alpha 90.487
_cell_angle_beta 89.967
_cell_angle_gamma 90.27
_space_group_name_H-M_alt 'P 1'
_space_group_name_Hall 'P 1'
loop_
    _symmetry_equiv_pos_as_xyz
    x,y,z
loop_
    _atom_site_label
    _atom_site_type_symbol
    _atom_site_fract_x
    _atom_site_fract_y
    _atom_site_fract_z
    _atom_site_occupancy
    Cu0     Cu   0.87136   0.34164   0.72027   1.000
    Cu1     Cu   0.37062   0.15803   0.77953   1.000
    Cu2     Cu   0.86986   0.15796   0.77962   1.000
    Cu3     Cu   0.12022   0.27917   0.84213   1.000
    Cu4     Cu   0.62100   0.27923   0.84203   1.000
    Cu5     Cu   0.12027   0.22066   0.65449   1.000
    Cu6     Cu   0.62111   0.22078   0.65446   1.000
    Cu7     Cu   0.12871   0.65838   0.27960   1.000
    Cu8     Cu   0.62922   0.65861   0.27953   1.000
    Cu9     Cu   0.13017   0.84206   0.22033   1.000
    Cu10    Cu   0.62941   0.84199   0.22043   1.000
    Cu11    Cu   0.37903   0.72079   0.15792   1.000
    Cu12    Cu   0.87981   0.72085   0.15784   1.000
    Cu13    Cu   0.37893   0.77924   0.34550   1.000
    Cu14    Cu   0.87976   0.77936   0.34547   1.000
    Cu15    Cu   0.37081   0.34141   0.72042   1.000
    S16     S    0.33883   0.29613   0.87780   1.000
    S17     S    0.83941   0.29646   0.87772   1.000
    S18     S    0.33893   0.20237   0.62201   1.000
    S19     S    0.83955   0.20259   0.62174   1.000
    S20     S    0.08850   0.12332   0.79310   1.000
    S21     S    0.58919   0.12337   0.79297   1.000
    S22     S    0.08981   0.37664   0.70420   1.000
    S23     S    0.58951   0.37638   0.70418   1.000
    S24     S    0.16063   0.70357   0.12222   1.000
    S25     S    0.66120   0.70390   0.12216   1.000
    S26     S    0.16048   0.79746   0.37821   1.000
    S27     S    0.66110   0.79765   0.37790   1.000
    S28     S    0.41084   0.87665   0.20699   1.000
    S29     S    0.91153   0.87670   0.20683   1.000
    S30     S    0.41052   0.62365   0.29578   1.000
    S31     S    0.91026   0.62340   0.29570   1.000
loop_
    _geom_bond_atom_site_label_1
    _geom_bond_atom_site_label_2
    _geom_bond_distance
    _geom_bond_site_symmetry_2
    _ccdc_geom_bond_type
    S25    Cu10      2.42871      .   S
    S25    Cu8       2.35159      .   S
    S24    Cu9       2.42371      .   S
    S24    Cu7       2.35093      .   S
    Cu12   S29       2.35138      .   S
    Cu12   S31       2.42201      .   S
    Cu12   Cu14      2.68651      .   S
    Cu11   S28       2.35232      .   S
    Cu11   S30       2.42582      .   S
    Cu11   Cu13      2.68563      .   S
    S29    Cu14      2.43329      .   S
    S28    Cu13      2.43325      .   S
    Cu9    Cu7       2.67328      .   S
    Cu9    S26       2.34748      .   S
    Cu10   Cu8       2.66858      .   S
    Cu10   S27       2.34991      .   S
    Cu8    S27       2.43552      .   S
    Cu7    S26       2.43705      .   S
    S31    Cu14      2.35381      .   S
    S30    Cu13      2.35577      .   S
    S19    Cu0       2.43648      .   S
    S19    Cu2       2.34751      .   S
    S18    Cu15      2.43577      .   S
    S18    Cu1       2.35053      .   S
    Cu6    S23       2.35580      .   S
    Cu6    S21       2.43325      .   S
    Cu6    Cu4       2.68549      .   S
    Cu5    S22       2.35356      .   S
    Cu5    S20       2.43291      .   S
    Cu5    Cu3       2.68664      .   S
    S23    Cu4       2.42578      .   S
    S22    Cu3       2.42265      .   S
    Cu0    Cu2       2.67363      .   S
    Cu0    S17       2.35202      .   S
    Cu15   Cu1       2.66862      .   S
    Cu15   S16       2.35166      .   S
    Cu1    S16       2.42869      .   S
    Cu2    S17       2.42367      .   S
    S21    Cu4       2.35227      .   S
    S20    Cu3       2.35144      .   S
