# CIF file generated by openbabel 2.4.90, see http://openbabel.sf.net
data_I
_chemical_name_common ''
_cell_length_a 21.644
_cell_length_b 13.83
_cell_length_c 13.69
_cell_angle_alpha 90.487
_cell_angle_beta 89.967
_cell_angle_gamma 90.27
_space_group_name_H-M_alt 'P 1'
_space_group_name_Hall 'P 1'
loop_
    _symmetry_equiv_pos_as_xyz
    x,y,z
loop_
    _atom_site_label
    _atom_site_type_symbol
    _atom_site_fract_x
    _atom_site_fract_y
    _atom_site_fract_z
    _atom_site_occupancy
    C0      C    0.37081   0.34141   0.72042   1.000
    C1      C    0.87136   0.34164   0.72027   1.000
    C2      C    0.37062   0.15803   0.77953   1.000
    C3      C    0.86986   0.15796   0.77962   1.000
    C4      C    0.12022   0.27917   0.84213   1.000
    C5      C    0.62100   0.27923   0.84203   1.000
    C6      C    0.12027   0.22066   0.65449   1.000
    C7      C    0.62111   0.22078   0.65446   1.000
    C8      C    0.12871   0.65838   0.27960   1.000
    C9      C    0.62922   0.65861   0.27953   1.000
    C10     C    0.13017   0.84206   0.22033   1.000
    C11     C    0.62941   0.84199   0.22043   1.000
    C12     C    0.37903   0.72079   0.15792   1.000
    C13     C    0.87981   0.72085   0.15784   1.000
    C14     C    0.37893   0.77924   0.34550   1.000
    C15     C    0.87976   0.77936   0.34547   1.000
    C16     C    0.25745   0.47048   0.76930   1.000
    C17     C    0.75775   0.47086   0.76952   1.000
    C18     C    0.25146   0.67980   0.53601   1.000
    C19     C    0.75106   0.67956   0.53573   1.000
    C20     C    0.34274   0.59833   0.46363   1.000
    C21     C    0.84206   0.59770   0.46277   1.000
    C22     C    0.38830   0.45512   0.54739   1.000
    C23     C    0.88781   0.45467   0.54649   1.000
    C24     C    0.20120   0.75686   0.64480   1.000
    C25     C    0.70045   0.75687   0.64433   1.000
    C26     C    0.14022   0.67683   0.60792   1.000
    C27     C    0.63990   0.67571   0.60818   1.000
    C28     C    0.25893   0.02373   0.72944   1.000
    C29     C    0.75787   0.02413   0.72968   1.000
    C30     C    0.25218   0.81719   0.96527   1.000
    C31     C    0.75134   0.81718   0.96515   1.000
    C32     C    0.34157   0.90363   0.03950   1.000
    C33     C    0.84086   0.90337   0.03929   1.000
    C34     C    0.38649   0.04774   0.95530   1.000
    C35     C    0.88576   0.04757   0.95514   1.000
    C36     C    0.20158   0.73637   0.85552   1.000
    C37     C    0.70107   0.73649   0.85535   1.000
    C38     C    0.14207   0.81818   0.89263   1.000
    C39     C    0.64125   0.81768   0.89260   1.000
    C40     C    0.00619   0.22934   0.97248   1.000
    C41     C    0.50702   0.22921   0.97295   1.000
    C42     C    0.99685   0.46420   0.18319   1.000
    C43     C    0.49744   0.46466   0.18290   1.000
    C44     C    0.08854   0.53615   0.10220   1.000
    C45     C    0.58891   0.53679   0.10150   1.000
    C46     C    0.13589   0.45148   0.95831   1.000
    C47     C    0.63627   0.45191   0.95775   1.000
    C48     C    0.44654   0.35818   0.26093   1.000
    C49     C    0.94610   0.35755   0.26078   1.000
    C50     C    0.38716   0.39223   0.17734   1.000
    C51     C    0.88659   0.39211   0.17760   1.000
    C52     C    0.00731   0.27273   0.52517   1.000
    C53     C    0.50831   0.27307   0.52499   1.000
    C54     C    0.99404   0.03860   0.31411   1.000
    C55     C    0.49441   0.03861   0.31442   1.000
    C56     C    0.08489   0.96455   0.39416   1.000
    C57     C    0.58503   0.96411   0.39466   1.000
    C58     C    0.13373   0.04776   0.53798   1.000
    C59     C    0.63407   0.04725   0.53835   1.000
    C60     C    0.44516   0.14676   0.23740   1.000
    C61     C    0.94470   0.14658   0.23721   1.000
    C62     C    0.38550   0.11342   0.32120   1.000
    C63     C    0.88496   0.11290   0.32070   1.000
    C64     C    0.24233   0.52918   0.23046   1.000
    C65     C    0.74257   0.52953   0.23065   1.000
    C66     C    0.24899   0.32046   0.46423   1.000
    C67     C    0.74859   0.32025   0.46396   1.000
    C68     C    0.15800   0.40234   0.53719   1.000
    C69     C    0.65731   0.40174   0.53636   1.000
    C70     C    0.11226   0.54537   0.45347   1.000
    C71     C    0.61174   0.54493   0.45259   1.000
    C72     C    0.29960   0.24315   0.35563   1.000
    C73     C    0.79883   0.24316   0.35517   1.000
    C74     C    0.36015   0.32428   0.39178   1.000
    C75     C    0.85981   0.32321   0.39200   1.000
    C76     C    0.24216   0.97590   0.27028   1.000
    C77     C    0.74109   0.97630   0.27052   1.000
    C78     C    0.24869   0.18285   0.03481   1.000
    C79     C    0.74784   0.18284   0.03469   1.000
    C80     C    0.15917   0.09667   0.96067   1.000
    C81     C    0.65846   0.09639   0.96042   1.000
    C82     C    0.11427   0.95246   0.04481   1.000
    C83     C    0.61354   0.95228   0.04465   1.000
    C84     C    0.29898   0.26353   0.14460   1.000
    C85     C    0.79845   0.26366   0.14443   1.000
    C86     C    0.35879   0.18232   0.10730   1.000
    C87     C    0.85796   0.18184   0.10733   1.000
    C88     C    0.49301   0.77081   0.02699   1.000
    C89     C    0.99384   0.77068   0.02748   1.000
    C90     C    0.50260   0.53534   0.81699   1.000
    C91     C    0.00000   0.53581   0.81678   1.000
    C92     C    0.41114   0.46321   0.89848   1.000
    C93     C    0.91150   0.46387   0.89777   1.000
    C94     C    0.36379   0.54809   0.04223   1.000
    C95     C    0.86414   0.54854   0.04166   1.000
    C96     C    0.05393   0.64246   0.73919   1.000
    C97     C    0.55352   0.64181   0.73903   1.000
    C98     C    0.11344   0.60792   0.82230   1.000
    C99     C    0.61288   0.60778   0.82260   1.000
    C100    C    0.49172   0.72693   0.47498   1.000
    C101    C    0.99271   0.72729   0.47481   1.000
    C102    C    0.50563   0.96140   0.68555   1.000
    C103    C    0.00000   0.96143   0.68585   1.000
    C104    C    0.41501   0.03591   0.60531   1.000
    C105    C    0.91514   0.03549   0.60579   1.000
    C106    C    0.36597   0.95277   0.46161   1.000
    C107    C    0.86630   0.95228   0.46197   1.000
    C108    C    0.05533   0.85345   0.76276   1.000
    C109    C    0.55490   0.85325   0.76252   1.000
    C110    C    0.11507   0.88712   0.67918   1.000
    C111    C    0.61455   0.88658   0.67865   1.000
    C112    C    0.26252   0.29293   0.86958   1.000
    C113    C    0.76311   0.29350   0.86960   1.000
    C114    C    0.27583   0.50051   0.70181   1.000
    C115    C    0.77593   0.50067   0.70180   1.000
    C116    C    0.24837   0.58236   0.66052   1.000
    C117    C    0.74837   0.58245   0.66050   1.000
    C118    C    0.27168   0.61808   0.57260   1.000
    C119    C    0.77137   0.61788   0.57227   1.000
    C120    C    0.32270   0.57187   0.53140   1.000
    C121    C    0.82222   0.57146   0.53070   1.000
    C122    C    0.34812   0.49228   0.57714   1.000
    C123    C    0.84776   0.49197   0.57653   1.000
    C124    C    0.16817   0.70184   0.67027   1.000
    C125    C    0.66780   0.70151   0.67020   1.000
    C126    C    0.26260   0.20578   0.62932   1.000
    C127    C    0.76324   0.20632   0.62879   1.000
    C128    C    0.27670   0.99544   0.79795   1.000
    C129    C    0.77572   0.99569   0.79808   1.000
    C130    C    0.24958   0.91304   0.83960   1.000
    C131    C    0.74864   0.91322   0.83964   1.000
    C132    C    0.27215   0.87942   0.92866   1.000
    C133    C    0.77130   0.87944   0.92859   1.000
    C134    C    0.32208   0.92837   0.97080   1.000
    C135    C    0.82131   0.92826   0.97067   1.000
    C136    C    0.34717   0.00843   0.92476   1.000
    C137    C    0.84636   0.00839   0.92468   1.000
    C138    C    0.16935   0.79208   0.83008   1.000
    C139    C    0.66862   0.79194   0.83000   1.000
    C140    C    0.01220   0.13126   0.79169   1.000
    C141    C    0.51290   0.13155   0.79140   1.000
    C142    C    0.02391   0.29706   0.00302   1.000
    C143    C    0.52464   0.29710   0.00324   1.000
    C144    C    0.99546   0.33897   0.08521   1.000
    C145    C    0.49618   0.33914   0.08537   1.000
    C146    C    0.01794   0.42720   0.12132   1.000
    C147    C    0.51853   0.42758   0.12115   1.000
    C148    C    0.06916   0.46815   0.07531   1.000
    C149    C    0.56961   0.46863   0.07486   1.000
    C150    C    0.09557   0.42184   0.99538   1.000
    C151    C    0.59604   0.42220   0.99502   1.000
    C152    C    0.41452   0.33130   0.20438   1.000
    C153    C    0.91394   0.33099   0.20429   1.000
    C154    C    0.01349   0.36876   0.70681   1.000
    C155    C    0.51318   0.36819   0.70692   1.000
    C156    C    0.02397   0.20470   0.49442   1.000
    C157    C    0.52477   0.20486   0.49440   1.000
    C158    C    0.99473   0.16359   0.41237   1.000
    C159    C    0.49539   0.16378   0.41247   1.000
    C160    C    0.01585   0.07498   0.37588   1.000
    C161    C    0.51629   0.07497   0.37614   1.000
    C162    C    0.06657   0.03285   0.42140   1.000
    C163    C    0.56689   0.03259   0.42176   1.000
    C164    C    0.09381   0.07838   0.50123   1.000
    C165    C    0.59425   0.07808   0.50151   1.000
    C166    C    0.41362   0.17396   0.29432   1.000
    C167    C    0.91303   0.17358   0.29402   1.000
    C168    C    0.23693   0.70654   0.13034   1.000
    C169    C    0.73751   0.70708   0.13039   1.000
    C170    C    0.22415   0.49937   0.29817   1.000
    C171    C    0.72420   0.49952   0.29815   1.000
    C172    C    0.25170   0.41758   0.33947   1.000
    C173    C    0.75166   0.41768   0.33944   1.000
    C174    C    0.22869   0.38214   0.42770   1.000
    C175    C    0.72836   0.38196   0.42737   1.000
    C176    C    0.17785   0.42858   0.46920   1.000
    C177    C    0.67734   0.42818   0.46858   1.000
    C178    C    0.15232   0.50807   0.42344   1.000
    C179    C    0.65193   0.50777   0.42284   1.000
    C180    C    0.33225   0.29849   0.32968   1.000
    C181    C    0.83186   0.29819   0.32969   1.000
    C182    C    0.23680   0.79373   0.37118   1.000
    C183    C    0.73743   0.79423   0.37064   1.000
    C184    C    0.22431   0.00434   0.20188   1.000
    C185    C    0.72332   0.00459   0.20200   1.000
    C186    C    0.25139   0.08681   0.16032   1.000
    C187    C    0.75044   0.08699   0.16030   1.000
    C188    C    0.22873   0.12059   0.07137   1.000
    C189    C    0.72788   0.12061   0.07129   1.000
    C190    C    0.17873   0.07177   0.02929   1.000
    C191    C    0.67794   0.07165   0.02915   1.000
    C192    C    0.15367   0.99165   0.07527   1.000
    C193    C    0.65286   0.99159   0.07500   1.000
    C194    C    0.33142   0.20807   0.16990   1.000
    C195    C    0.83068   0.20794   0.16988   1.000
    C196    C    0.48713   0.86847   0.20854   1.000
    C197    C    0.98783   0.86876   0.20820   1.000
    C198    C    0.47540   0.70291   0.99671   1.000
    C199    C    0.97612   0.70297   0.99694   1.000
    C200    C    0.50386   0.66087   0.91458   1.000
    C201    C    0.00000   0.66105   0.91475   1.000
    C202    C    0.48152   0.57242   0.87880   1.000
    C203    C    0.98209   0.57281   0.87864   1.000
    C204    C    0.43043   0.53137   0.92511   1.000
    C205    C    0.93088   0.53187   0.92466   1.000
    C206    C    0.40401   0.57781   0.00496   1.000
    C207    C    0.90446   0.57817   0.00458   1.000
    C208    C    0.08609   0.66903   0.79567   1.000
    C209    C    0.58552   0.66870   0.79558   1.000
    C210    C    0.48684   0.63183   0.29303   1.000
    C211    C    0.98658   0.63128   0.29310   1.000
    C212    C    0.47527   0.79515   0.50556   1.000
    C213    C    0.97605   0.79532   0.50555   1.000
    C214    C    0.50464   0.83623   0.58750   1.000
    C215    C    0.00000   0.83643   0.58760   1.000
    C216    C    0.48375   0.92504   0.62383   1.000
    C217    C    0.98418   0.92504   0.62409   1.000
    C218    C    0.43315   0.96743   0.57821   1.000
    C219    C    0.93346   0.96718   0.57856   1.000
    C220    C    0.40579   0.92193   0.49846   1.000
    C221    C    0.90622   0.92165   0.49873   1.000
    C222    C    0.08700   0.82644   0.70595   1.000
    C223    C    0.58643   0.82604   0.70563   1.000
    C224    C    0.12766   0.74731   0.75055   1.000
    C225    C    0.62709   0.74696   0.75038   1.000
    C226    C    0.37296   0.25305   0.24958   1.000
    C227    C    0.87237   0.25272   0.24941   1.000
    C228    C    0.33883   0.29613   0.87780   1.000
    C229    C    0.83941   0.29646   0.87772   1.000
    C230    C    0.33893   0.20237   0.62201   1.000
    C231    C    0.83955   0.20259   0.62174   1.000
    C232    C    0.08850   0.12332   0.79310   1.000
    C233    C    0.58919   0.12337   0.79297   1.000
    C234    C    0.08981   0.37664   0.70420   1.000
    C235    C    0.58951   0.37638   0.70418   1.000
    C236    C    0.16063   0.70357   0.12222   1.000
    C237    C    0.66120   0.70390   0.12216   1.000
    C238    C    0.16048   0.79746   0.37821   1.000
    C239    C    0.66110   0.79765   0.37790   1.000
    C240    C    0.41084   0.87665   0.20699   1.000
    C241    C    0.91153   0.87670   0.20683   1.000
    C242    C    0.41052   0.62365   0.29578   1.000
    C243    C    0.91026   0.62340   0.29570   1.000
    C244    C    0.20789   0.29012   0.86559   1.000
    C245    C    0.70849   0.29076   0.86555   1.000
    C246    C    0.32485   0.45630   0.66130   1.000
    C247    C    0.82480   0.45626   0.66108   1.000
    C248    C    0.20798   0.20888   0.63257   1.000
    C249    C    0.70863   0.20967   0.63200   1.000
    C250    C    0.32467   0.04225   0.83928   1.000
    C251    C    0.82377   0.04238   0.83930   1.000
    C252    C    0.45829   0.13573   0.78983   1.000
    C253    C    0.95760   0.13523   0.79019   1.000
    C254    C    0.07310   0.33733   0.95888   1.000
    C255    C    0.57370   0.33746   0.95884   1.000
    C256    C    0.45855   0.36415   0.70940   1.000
    C257    C    0.95888   0.36471   0.70929   1.000
    C258    C    0.07263   0.16328   0.53807   1.000
    C259    C    0.57331   0.16321   0.53814   1.000
    C260    C    0.29155   0.70928   0.13439   1.000
    C261    C    0.79214   0.70988   0.13438   1.000
    C262    C    0.17528   0.54377   0.33888   1.000
    C263    C    0.67518   0.54373   0.33860   1.000
    C264    C    0.29141   0.79039   0.36794   1.000
    C265    C    0.79205   0.79112   0.36739   1.000
    C266    C    0.17626   0.95765   0.16062   1.000
    C267    C    0.67535   0.95778   0.16068   1.000
    C268    C    0.04243   0.86479   0.20970   1.000
    C269    C    0.54174   0.86429   0.21013   1.000
    C270    C    0.42634   0.66256   0.04112   1.000
    C271    C    0.92693   0.66269   0.04108   1.000
    C272    C    0.04119   0.63531   0.29067   1.000
    C273    C    0.54147   0.63587   0.29051   1.000
    C274    C    0.42673   0.83680   0.46182   1.000
    C275    C    0.92739   0.83675   0.46189   1.000
    C276    C    0.20033   0.62113   0.71215   1.000
    C277    C    0.70058   0.62153   0.71248   1.000
    C278    C    0.20263   0.87159   0.78711   1.000
    C279    C    0.70161   0.87185   0.78724   1.000
    C280    C    0.44823   0.28779   0.12461   1.000
    C281    C    0.94740   0.28773   0.12417   1.000
    C282    C    0.44808   0.21638   0.37409   1.000
    C283    C    0.94732   0.21596   0.37400   1.000
    C284    C    0.29949   0.37849   0.28749   1.000
    C285    C    0.79969   0.37889   0.28780   1.000
    C286    C    0.29842   0.12817   0.21272   1.000
    C287    C    0.79739   0.12844   0.21285   1.000
    C288    C    0.05263   0.71229   0.87579   1.000
    C289    C    0.55180   0.71222   0.87533   1.000
    C290    C    0.05270   0.78406   0.62598   1.000
    C291    C    0.55195   0.78362   0.62588   1.000
    O292    O    0.00969   0.31801   0.04412   1.000
    O293    O    0.04850   0.31719   0.98095   1.000
    O294    O    0.01505   0.26320   0.98775   1.000
    O295    O    0.51041   0.31812   0.04431   1.000
    O296    O    0.54917   0.31728   0.98104   1.000
    O297    O    0.51583   0.26316   0.98809   1.000
    O298    O    0.91570   0.62043   0.02283   1.000
    O299    O    0.88430   0.56336   0.02312   1.000
    O300    O    0.91767   0.55502   0.96462   1.000
    O301    O    0.41517   0.62018   0.02304   1.000
    O302    O    0.38390   0.56295   0.02359   1.000
    O303    O    0.41722   0.55459   0.96503   1.000
    O304    O    0.48420   0.73686   0.01185   1.000
    O305    O    0.98498   0.73683   0.01221   1.000
    O306    O    0.70291   0.09613   0.05022   1.000
    O307    O    0.66540   0.03162   0.05208   1.000
    O308    O    0.66820   0.08402   0.99479   1.000
    O309    O    0.20373   0.09618   0.05033   1.000
    O310    O    0.16620   0.03171   0.05228   1.000
    O311    O    0.16895   0.08422   0.99498   1.000
    O312    O    0.73786   0.15172   0.05299   1.000
    O313    O    0.23871   0.15172   0.05309   1.000
    O314    O    0.83108   0.91582   0.00498   1.000
    O315    O    0.33183   0.91600   0.00515   1.000
    O316    O    0.90337   0.69177   0.09946   1.000
    O317    O    0.95152   0.68283   0.01901   1.000
    O318    O    0.40268   0.69167   0.09952   1.000
    O319    O    0.45087   0.68273   0.01891   1.000
    O320    O    0.63320   0.97194   0.05983   1.000
    O321    O    0.13397   0.97206   0.06004   1.000
    O322    O    0.73916   0.10380   0.11580   1.000
    O323    O    0.24006   0.10370   0.11584   1.000
    O324    O    0.57926   0.50271   0.08818   1.000
    O325    O    0.54407   0.44811   0.09800   1.000
    O326    O    0.58283   0.44541   0.03494   1.000
    O327    O    0.66411   0.97468   0.11784   1.000
    O328    O    0.16497   0.97465   0.11795   1.000
    O329    O    0.07885   0.50215   0.08876   1.000
    O330    O    0.04355   0.44768   0.09832   1.000
    O331    O    0.08236   0.44500   0.03535   1.000
    O332    O    0.00670   0.38309   0.10326   1.000
    O333    O    0.97143   0.31335   0.10469   1.000
    O334    O    0.50735   0.38336   0.10326   1.000
    O335    O    0.47221   0.31347   0.10499   1.000
    O336    O    0.34511   0.19520   0.13860   1.000
    O337    O    0.84432   0.19489   0.13861   1.000
    O338    O    0.50799   0.44612   0.15203   1.000
    O339    O    0.00739   0.44570   0.15226   1.000
    O340    O    0.69936   0.70549   0.12628   1.000
    O341    O    0.64530   0.77294   0.17130   1.000
    O342    O    0.64521   0.68126   0.20084   1.000
    O343    O    0.19878   0.70505   0.12628   1.000
    O344    O    0.14540   0.77281   0.17127   1.000
    O345    O    0.14467   0.68098   0.20091   1.000
    O346    O    0.93067   0.30936   0.16423   1.000
    O347    O    0.43138   0.30955   0.16449   1.000
    O348    O    0.26424   0.70791   0.13237   1.000
    O349    O    0.76482   0.70848   0.13239   1.000
    O350    O    0.83597   0.71537   0.14611   1.000
    O351    O    0.33529   0.71504   0.14616   1.000
    O352    O    0.81456   0.23580   0.15716   1.000
    O353    O    0.31520   0.23580   0.15725   1.000
    O354    O    0.89567   0.79878   0.18233   1.000
    O355    O    0.89503   0.67213   0.22677   1.000
    O356    O    0.87978   0.75011   0.25166   1.000
    O357    O    0.39493   0.79872   0.18246   1.000
    O358    O    0.39477   0.67222   0.22685   1.000
    O359    O    0.37898   0.75002   0.25171   1.000
    O360    O    0.73688   0.04579   0.18115   1.000
    O361    O    0.77392   0.10771   0.18657   1.000
    O362    O    0.23785   0.04557   0.18110   1.000
    O363    O    0.27491   0.10749   0.18652   1.000
    O364    O    0.20029   0.98099   0.18125   1.000
    O365    O    0.15321   0.89985   0.19048   1.000
    O366    O    0.69934   0.98118   0.18134   1.000
    O367    O    0.65238   0.89988   0.19056   1.000
    O368    O    0.81404   0.16819   0.19137   1.000
    O369    O    0.85152   0.23033   0.20964   1.000
    O370    O    0.31492   0.16812   0.19131   1.000
    O371    O    0.35219   0.23056   0.20974   1.000
    O372    O    0.40084   0.36177   0.19086   1.000
    O373    O    0.90027   0.36155   0.19094   1.000
    O374    O    0.23323   0.99012   0.23608   1.000
    O375    O    0.73221   0.99045   0.23626   1.000
    O376    O    0.89315   0.29185   0.22685   1.000
    O377    O    0.93002   0.34427   0.23254   1.000
    O378    O    0.39374   0.29217   0.22698   1.000
    O379    O    0.43053   0.34474   0.23266   1.000
    O380    O    0.94968   0.87273   0.20751   1.000
    O381    O    0.89564   0.82803   0.27615   1.000
    O382    O    0.44898   0.87256   0.20776   1.000
    O383    O    0.39488   0.82794   0.27624   1.000
    O384    O    0.01513   0.86677   0.20895   1.000
    O385    O    0.51443   0.86638   0.20934   1.000
    O386    O    0.08630   0.85342   0.21502   1.000
    O387    O    0.58557   0.85314   0.21528   1.000
    O388    O    0.12944   0.75022   0.24997   1.000
    O389    O    0.14533   0.81976   0.29927   1.000
    O390    O    0.62931   0.75030   0.24998   1.000
    O391    O    0.64525   0.81982   0.29917   1.000
    O392    O    0.23324   0.51427   0.26431   1.000
    O393    O    0.73338   0.51453   0.26440   1.000
    O394    O    0.92886   0.16008   0.26561   1.000
    O395    O    0.42939   0.16036   0.26586   1.000
    O396    O    0.89270   0.21315   0.27171   1.000
    O397    O    0.85211   0.27545   0.28955   1.000
    O398    O    0.39329   0.21350   0.27195   1.000
    O399    O    0.35260   0.27577   0.28963   1.000
    O400    O    0.58534   0.64724   0.28502   1.000
    O401    O    0.65220   0.60117   0.30906   1.000
    O402    O    0.64516   0.72813   0.32872   1.000
    O403    O    0.08495   0.64685   0.28514   1.000
    O404    O    0.15199   0.60108   0.30924   1.000
    O405    O    0.14460   0.72792   0.32890   1.000
    O406    O    0.31587   0.33849   0.30858   1.000
    O407    O    0.27559   0.39803   0.31348   1.000
    O408    O    0.81577   0.33854   0.30875   1.000
    O409    O    0.77568   0.39828   0.31362   1.000
    O410    O    0.51416   0.63385   0.29177   1.000
    O411    O    0.01388   0.63330   0.29189   1.000
    O412    O    0.44868   0.62774   0.29441   1.000
    O413    O    0.94842   0.62734   0.29440   1.000
    O414    O    0.89899   0.14324   0.30736   1.000
    O415    O    0.93017   0.19477   0.33401   1.000
    O416    O    0.39956   0.14369   0.30776   1.000
    O417    O    0.43085   0.19517   0.33420   1.000
    O418    O    0.89501   0.70138   0.32059   1.000
    O419    O    0.39472   0.70144   0.32064   1.000
    O420    O    0.69969   0.52163   0.31838   1.000
    O421    O    0.73793   0.45860   0.31880   1.000
    O422    O    0.19971   0.52157   0.31853   1.000
    O423    O    0.23792   0.45847   0.31882   1.000
    O424    O    0.00494   0.05679   0.34500   1.000
    O425    O    0.50535   0.05679   0.34528   1.000
    O426    O    0.31592   0.27082   0.34265   1.000
    O427    O    0.34620   0.31139   0.36073   1.000
    O428    O    0.81534   0.27068   0.34243   1.000
    O429    O    0.84583   0.31070   0.36084   1.000
    O430    O    0.66355   0.52575   0.38072   1.000
    O431    O    0.16380   0.52592   0.38116   1.000
    O432    O    0.74001   0.39982   0.38341   1.000
    O433    O    0.24020   0.39986   0.38359   1.000
    O434    O    0.83591   0.78524   0.35643   1.000
    O435    O    0.90358   0.80805   0.40368   1.000
    O436    O    0.33517   0.78481   0.35672   1.000
    O437    O    0.40283   0.80802   0.40366   1.000
    O438    O    0.76474   0.79267   0.36901   1.000
    O439    O    0.26410   0.79206   0.36956   1.000
    O440    O    0.69927   0.79594   0.37427   1.000
    O441    O    0.19864   0.79560   0.37470   1.000
    O442    O    0.97102   0.18978   0.39319   1.000
    O443    O    0.47174   0.19008   0.39328   1.000
    O444    O    0.00529   0.11929   0.39413   1.000
    O445    O    0.04121   0.05392   0.39864   1.000
    O446    O    0.50584   0.11937   0.39431   1.000
    O447    O    0.54159   0.05378   0.39895   1.000
    O448    O    0.07573   0.99870   0.40778   1.000
    O449    O    0.57596   0.99835   0.40821   1.000
    O450    O    0.00935   0.18414   0.45339   1.000
    O451    O    0.51008   0.18432   0.45343   1.000
    O452    O    0.08019   0.05561   0.46132   1.000
    O453    O    0.58057   0.05533   0.46164   1.000
    O454    O    0.63183   0.52635   0.43772   1.000
    O455    O    0.66463   0.46798   0.44571   1.000
    O456    O    0.13229   0.52672   0.43845   1.000
    O457    O    0.16508   0.46832   0.44632   1.000
    O458    O    0.73847   0.35111   0.44566   1.000
    O459    O    0.70285   0.40507   0.44798   1.000
    O460    O    0.23884   0.35130   0.44597   1.000
    O461    O    0.20327   0.40536   0.44845   1.000
    O462    O    0.38588   0.93735   0.48003   1.000
    O463    O    0.41626   0.87937   0.48014   1.000
    O464    O    0.45100   0.81598   0.48369   1.000
    O465    O    0.91681   0.87920   0.48031   1.000
    O466    O    0.95172   0.81604   0.48372   1.000
    O467    O    0.88626   0.93696   0.48035   1.000
    O468    O    0.83214   0.58458   0.49673   1.000
    O469    O    0.33272   0.58510   0.49751   1.000
    O470    O    0.66733   0.41496   0.50247   1.000
    O471    O    0.16792   0.41546   0.50320   1.000
    O472    O    0.98438   0.76131   0.49018   1.000
    O473    O    0.48350   0.76104   0.49027   1.000
    O474    O    0.51654   0.23897   0.50970   1.000
    O475    O    0.54904   0.18404   0.51627   1.000
    O476    O    0.01564   0.23871   0.50979   1.000
    O477    O    0.04830   0.18399   0.51625   1.000
    O478    O    0.41947   0.94468   0.53834   1.000
    O479    O    0.91984   0.94442   0.53865   1.000
    O480    O    0.11377   0.06307   0.51960   1.000
    O481    O    0.08322   0.12083   0.51965   1.000
    O482    O    0.58378   0.12065   0.51982   1.000
    O483    O    0.61416   0.06267   0.51993   1.000
    O484    O    0.98803   0.81588   0.54658   1.000
    O485    O    0.48996   0.81569   0.54653   1.000
    O486    O    0.79679   0.59467   0.55148   1.000
    O487    O    0.83499   0.53171   0.55361   1.000
    O488    O    0.29719   0.59497   0.55200   1.000
    O489    O    0.33541   0.53207   0.55427   1.000
    O490    O    0.76122   0.64872   0.55400   1.000
    O491    O    0.26157   0.64894   0.55430   1.000
    O492    O    0.09645   0.19197   0.59628   1.000
    O493    O    0.59721   0.19200   0.59630   1.000
    O494    O    0.86778   0.47332   0.56151   1.000
    O495    O    0.36821   0.47370   0.56227   1.000
    O496    O    0.75987   0.60017   0.61638   1.000
    O497    O    0.26002   0.60022   0.61656   1.000
    O498    O    0.83628   0.47412   0.61880   1.000
    O499    O    0.33648   0.47429   0.61922   1.000
    O500    O    0.42408   0.00167   0.59176   1.000
    O501    O    0.45845   0.94624   0.60102   1.000
    O502    O    0.92430   0.00133   0.59218   1.000
    O503    O    0.95882   0.94611   0.60132   1.000
    O504    O    0.49420   0.88063   0.60567   1.000
    O505    O    0.52830   0.80992   0.60669   1.000
    O506    O    0.99209   0.88074   0.60585   1.000
    O507    O    0.02635   0.81024   0.60679   1.000
    O508    O    0.15419   0.68933   0.63910   1.000
    O509    O    0.65385   0.68861   0.63919   1.000
    O510    O    0.80140   0.20445   0.62526   1.000
    O511    O    0.85546   0.27211   0.67100   1.000
    O512    O    0.85471   0.18028   0.70068   1.000
    O513    O    0.30076   0.20407   0.62567   1.000
    O514    O    0.35487   0.27189   0.67121   1.000
    O515    O    0.35478   0.18020   0.70077   1.000
    O516    O    0.49469   0.94322   0.65469   1.000
    O517    O    0.99209   0.94324   0.65497   1.000
    O518    O    0.56919   0.80483   0.66575   1.000
    O519    O    0.06985   0.80525   0.66596   1.000
    O520    O    0.73593   0.20799   0.63039   1.000
    O521    O    0.23529   0.20733   0.63094   1.000
    O522    O    0.66487   0.21522   0.64323   1.000
    O523    O    0.16412   0.21477   0.64353   1.000
    O524    O    0.68413   0.72919   0.65726   1.000
    O525    O    0.18469   0.72935   0.65753   1.000
    O526    O    0.60531   0.29858   0.67932   1.000
    O527    O    0.60515   0.17208   0.72371   1.000
    O528    O    0.62105   0.25001   0.74825   1.000
    O529    O    0.10504   0.29865   0.67935   1.000
    O530    O    0.10439   0.17199   0.72379   1.000
    O531    O    0.12025   0.24991   0.74831   1.000
    O532    O    0.76215   0.54156   0.68115   1.000
    O533    O    0.72447   0.60199   0.68649   1.000
    O534    O    0.26210   0.54143   0.68117   1.000
    O535    O    0.22435   0.60175   0.68633   1.000
    O536    O    0.80036   0.47847   0.68144   1.000
    O537    O    0.84808   0.39895   0.69067   1.000
    O538    O    0.30034   0.47840   0.68156   1.000
    O539    O    0.34783   0.39885   0.69086   1.000
    O540    O    0.68419   0.66152   0.69134   1.000
    O541    O    0.64744   0.72423   0.71029   1.000
    O542    O    0.18425   0.66149   0.69121   1.000
    O543    O    0.14791   0.72457   0.71041   1.000
    O544    O    0.60049   0.85631   0.69214   1.000
    O545    O    0.10103   0.85678   0.69256   1.000
    O546    O    0.76684   0.48576   0.73566   1.000
    O547    O    0.26664   0.48550   0.73556   1.000
    O548    O    0.55134   0.37228   0.70555   1.000
    O549    O    0.60526   0.32780   0.77311   1.000
    O550    O    0.05165   0.37270   0.70551   1.000
    O551    O    0.10502   0.32790   0.77317   1.000
    O552    O    0.60676   0.78650   0.72801   1.000
    O553    O    0.57066   0.83965   0.73407   1.000
    O554    O    0.10733   0.78687   0.72825   1.000
    O555    O    0.07116   0.83994   0.73435   1.000
    O556    O    0.98619   0.36674   0.70805   1.000
    O557    O    0.48587   0.36617   0.70816   1.000
    O558    O    0.91512   0.35318   0.71478   1.000
    O559    O    0.41468   0.35278   0.71491   1.000
    O560    O    0.87061   0.24980   0.74994   1.000
    O561    O    0.85538   0.31905   0.79900   1.000
    O562    O    0.37071   0.24972   0.74997   1.000
    O563    O    0.35482   0.31877   0.79911   1.000
    O564    O    0.26782   0.00959   0.76370   1.000
    O565    O    0.76679   0.00991   0.76388   1.000
    O566    O    0.56952   0.65526   0.76731   1.000
    O567    O    0.07001   0.65575   0.76743   1.000
    O568    O    0.60630   0.70783   0.77298   1.000
    O569    O    0.64785   0.76945   0.79019   1.000
    O570    O    0.10687   0.70817   0.77311   1.000
    O571    O    0.14850   0.76970   0.79032   1.000
    O572    O    0.41446   0.14688   0.78468   1.000
    O573    O    0.34765   0.10014   0.80940   1.000
    O574    O    0.35473   0.22708   0.82866   1.000
    O575    O    0.91373   0.14660   0.78491   1.000
    O576    O    0.84681   0.10017   0.80946   1.000
    O577    O    0.85463   0.22721   0.82867   1.000
    O578    O    0.18599   0.83184   0.80859   1.000
    O579    O    0.22611   0.89232   0.81335   1.000
    O580    O    0.68511   0.83190   0.80862   1.000
    O581    O    0.72512   0.89253   0.81344   1.000
    O582    O    0.48560   0.13364   0.79061   1.000
    O583    O    0.98490   0.13325   0.79094   1.000
    O584    O    0.55105   0.12746   0.79219   1.000
    O585    O    0.05035   0.12729   0.79239   1.000
    O586    O    0.60510   0.20130   0.81750   1.000
    O587    O    0.10436   0.20124   0.81762   1.000
    O588    O    0.59920   0.63824   0.80909   1.000
    O589    O    0.56866   0.69046   0.83545   1.000
    O590    O    0.09977   0.63847   0.80899   1.000
    O591    O    0.06936   0.69066   0.83573   1.000
    O592    O    0.30069   0.01884   0.81862   1.000
    O593    O    0.26314   0.95424   0.81878   1.000
    O594    O    0.79974   0.01904   0.81869   1.000
    O595    O    0.76218   0.95445   0.81886   1.000
    O596    O    0.99105   0.55431   0.84771   1.000
    O597    O    0.49206   0.55388   0.84789   1.000
    O598    O    0.68484   0.76422   0.84268   1.000
    O599    O    0.65493   0.80481   0.86130   1.000
    O600    O    0.18547   0.76423   0.84280   1.000
    O601    O    0.15571   0.80513   0.86135   1.000
    O602    O    0.33592   0.02534   0.88202   1.000
    O603    O    0.83506   0.02538   0.88199   1.000
    O604    O    0.26087   0.89623   0.88413   1.000
    O605    O    0.75997   0.89633   0.88411   1.000
    O606    O    0.66475   0.28499   0.85379   1.000
    O607    O    0.59735   0.30834   0.90043   1.000
    O608    O    0.16406   0.28464   0.85386   1.000
    O609    O    0.09666   0.30825   0.90050   1.000
    O610    O    0.73580   0.29213   0.86757   1.000
    O611    O    0.23521   0.29153   0.86758   1.000
    O612    O    0.30068   0.29453   0.87369   1.000
    O613    O    0.80126   0.29498   0.87366   1.000
    O614    O    0.52783   0.68655   0.89496   1.000
    O615    O    0.02631   0.68667   0.89527   1.000
    O616    O    0.99105   0.61693   0.89670   1.000
    O617    O    0.95649   0.55234   0.90165   1.000
    O618    O    0.49269   0.61665   0.89669   1.000
    O619    O    0.45597   0.55190   0.90196   1.000
    O620    O    0.92119   0.49787   0.91122   1.000
    O621    O    0.42079   0.49729   0.91180   1.000
    O622    O    0.48963   0.68189   0.95565   1.000
    O623    O    0.98806   0.68201   0.95584   1.000
    O624    O    0.86606   0.02798   0.93991   1.000
    O625    O    0.83383   0.96833   0.94767   1.000
    O626    O    0.36683   0.02809   0.94003   1.000
    O627    O    0.33462   0.96840   0.94778   1.000
    O628    O    0.76132   0.84831   0.94687   1.000
    O629    O    0.79630   0.90385   0.94963   1.000
    O630    O    0.26217   0.84830   0.94697   1.000
    O631    O    0.29712   0.90390   0.94973   1.000
    O632    O    0.61615   0.43706   0.97638   1.000
    O633    O    0.11573   0.43666   0.97685   1.000
    O634    O    0.58487   0.37983   0.97693   1.000
    O635    O    0.08433   0.37959   0.97713   1.000
loop_
    _geom_bond_atom_site_label_1
    _geom_bond_atom_site_label_2
    _geom_bond_distance
    _geom_bond_site_symmetry_2
    _ccdc_geom_bond_type
    C142   O292      0.70226      .   S
    C144   O292      0.70226  1_655   S
    C142   O293      0.67230  1_554   S
    C254   O293      0.67230      .   S
    C142   O294      0.54521  1_554   S
    C40    O294      0.54521      .   S
    C143   O295      0.70237      .   S
    C145   O295      0.70237      .   S
    C143   O296      0.67230  1_554   S
    C255   O296      0.67230      .   S
    C143   O297      0.54523  1_554   S
    C41    O297      0.54523      .   S
    C207   O298      0.67779      .   S
    C271   O298      0.67779      .   S
    C207   O299      0.54472      .   S
    C95    O299      0.54472      .   S
    C207   O300      0.69372  1_554   S
    C205   O300      0.69372      .   S
    C206   O301      0.67777      .   S
    C270   O301      0.67777      .   S
    C206   O302      0.54470      .   S
    C94    O302      0.54470      .   S
    C206   O303      0.69380  1_554   S
    C204   O303      0.69380      .   S
    C88    O304      0.54523      .   S
    C198   O304      0.54523  1_556   S
    C89    O305      0.54523      .   S
    C199   O305      0.54523  1_556   S
    C191   O306      0.69758      .   S
    C189   O306      0.69758      .   S
    C191   O307      0.69293      .   S
    C193   O307      0.69293  1_565   S
    C191   O308      0.54486  1_554   S
    C81    O308      0.54486      .   S
    C190   O309      0.69758      .   S
    C188   O309      0.69758      .   S
    C190   O310      0.69354      .   S
    C192   O310      0.69354  1_565   S
    C190   O311      0.54487  1_554   S
    C80    O311      0.54487      .   S
    C79    O312      0.54363      .   S
    C189   O312      0.54363      .   S
    C78    O313      0.54363      .   S
    C188   O313      0.54363      .   S
    C33    O314      0.54487      .   S
    C135   O314      0.54487  1_556   S
    C32    O315      0.54469      .   S
    C134   O315      0.54469  1_556   S
    C271   O316      1.02791      .   S
    C13    O316      1.02791      .   S
    C271   O317      0.67231      .   S
    C199   O317      0.67231  1_556   S
    C270   O318      1.02931      .   S
    C12    O318      1.02931      .   S
    C270   O319      0.67231      .   S
    C198   O319      0.67231  1_556   S
    C83    O320      0.54423      .   S
    C193   O320      0.54423      .   S
    C82    O321      0.54472      .   S
    C192   O321      0.54472      .   S
    C189   O322      0.69856      .   S
    C187   O322      0.69856      .   S
    C188   O323      0.69894      .   S
    C186   O323      0.69894      .   S
    C149   O324      0.54466      .   S
    C45    O324      0.54466      .   S
    C149   O325      0.69746      .   S
    C147   O325      0.69746      .   S
    C149   O326      0.69373      .   S
    C151   O326      0.69373  1_556   S
    C193   O327      0.67889      .   S
    C267   O327      0.67889      .   S
    C192   O328      0.67779      .   S
    C266   O328      0.67779      .   S
    C148   O329      0.54463      .   S
    C44    O329      0.54463      .   S
    C148   O330      0.69743      .   S
    C146   O330      0.69743      .   S
    C148   O331      0.69376      .   S
    C150   O331      0.69376  1_556   S
    C144   O332      0.69902  1_655   S
    C146   O332      0.69902      .   S
    C144   O333      0.68330      .   S
    C281   O333      0.68330      .   S
    C145   O334      0.69903      .   S
    C147   O334      0.69903      .   S
    C145   O335      0.68347      .   S
    C280   O335      0.68347      .   S
    C86    O336      0.54964      .   S
    C194   O336      0.54964      .   S
    C87    O337      0.54960      .   S
    C195   O337      0.54960      .   S
    C147   O338      0.54318      .   S
    C43    O338      0.54318      .   S
    C146   O339      0.54359      .   S
    C42    O339      0.54359  1_655   S
    C237   O340      0.82798      .   S
    C169   O340      0.82798      .   S
    C237   O341      1.21436      .   S
    C11    O341      1.21436      .   S
    C237   O342      1.17579      .   S
    C9     O342      1.17579      .   S
    C236   O343      0.82777      .   S
    C168   O343      0.82777      .   S
    C236   O344      1.21186      .   S
    C10    O344      1.21186      .   S
    C236   O345      1.17546      .   S
    C8     O345      1.17546      .   S
    C281   O346      0.72068      .   S
    C153   O346      0.72068      .   S
    C280   O347      0.72095      .   S
    C152   O347      0.72095      .   S
    C168   O348      0.59195      .   S
    C260   O348      0.59195      .   S
    C169   O349      0.59201      .   S
    C261   O349      0.59201      .   S
    C261   O350      0.96488      .   S
    C13    O350      0.96488      .   S
    C260   O351      0.96322      .   S
    C12    O351      0.96322      .   S
    C85    O352      0.55039      .   S
    C195   O352      0.55039      .   S
    C84    O353      0.55022      .   S
    C194   O353      0.55022      .   S
    C13    O354      1.17569      .   S
    C241   O354      1.17569      .   S
    C13    O355      1.21101      .   S
    C243   O355      1.21101      .   S
    C13    O356      1.34325      .   S
    C15    O356      1.34325      .   S
    C12    O357      1.17616      .   S
    C240   O357      1.17616      .   S
    C12    O358      1.21291      .   S
    C242   O358      1.21291      .   S
    C12    O359      1.34281      .   S
    C14    O359      1.34281      .   S
    C187   O360      0.70239      .   S
    C185   O360      0.70239      .   S
    C187   O361      0.68324      .   S
    C287   O361      0.68324      .   S
    C186   O362      0.70225      .   S
    C184   O362      0.70225      .   S
    C186   O363      0.68310      .   S
    C286   O363      0.68310      .   S
    C266   O364      0.67189      .   S
    C184   O364      0.67189  1_545   S
    C266   O365      1.02776      .   S
    C10    O365      1.02776      .   S
    C267   O366      0.67181      .   S
    C185   O366      0.67181  1_545   S
    C267   O367      1.02817      .   S
    C11    O367      1.02817      .   S
    C195   O368      0.72060      .   S
    C287   O368      0.72060      .   S
    C195   O369      0.76933      .   S
    C227   O369      0.76933      .   S
    C194   O370      0.72074      .   S
    C286   O370      0.72074      .   S
    C194   O371      0.76964      .   S
    C226   O371      0.76964      .   S
    C50    O372      0.54957      .   S
    C152   O372      0.54957      .   S
    C51    O373      0.54968      .   S
    C153   O373      0.54968      .   S
    C184   O374      0.54515  1_545   S
    C76    O374      0.54515      .   S
    C185   O375      0.54517  1_545   S
    C77    O375      0.54517      .   S
    C153   O376      0.76885      .   S
    C227   O376      0.76885      .   S
    C153   O377      0.55022      .   S
    C49    O377      0.55022      .   S
    C152   O378      0.76895      .   S
    C226   O378      0.76895      .   S
    C152   O379      0.55018      .   S
    C48    O379      0.55018      .   S
    C241   O380      0.82786      .   S
    C197   O380      0.82786      .   S
    C241   O381      1.21664      .   S
    C15    O381      1.21664      .   S
    C240   O382      0.82789      .   S
    C196   O382      0.82789      .   S
    C240   O383      1.21662      .   S
    C14    O383      1.21662      .   S
    C197   O384      0.59179  1_655   S
    C268   O384      0.59179      .   S
    C196   O385      0.59192      .   S
    C269   O385      0.59192      .   S
    C268   O386      0.96601      .   S
    C10    O386      0.96601      .   S
    C269   O387      0.96466      .   S
    C11    O387      0.96466      .   S
    C10    O388      1.33664      .   S
    C8     O388      1.33664      .   S
    C10    O389      1.17374      .   S
    C238   O389      1.17374      .   S
    C11    O390      1.33429      .   S
    C9     O390      1.33429      .   S
    C11    O391      1.17496      .   S
    C239   O391      1.17496      .   S
    C64    O392      0.54513      .   S
    C170   O392      0.54513      .   S
    C65    O393      0.54516      .   S
    C171   O393      0.54516      .   S
    C61    O394      0.55023      .   S
    C167   O394      0.55023      .   S
    C60    O395      0.55036      .   S
    C166   O395      0.55036      .   S
    C227   O396      0.76912      .   S
    C167   O396      0.76912      .   S
    C227   O397      0.76886      .   S
    C181   O397      0.76886      .   S
    C226   O398      0.76924      .   S
    C166   O398      0.76924      .   S
    C226   O399      0.76915      .   S
    C180   O399      0.76915      .   S
    C9     O400      0.96478      .   S
    C273   O400      0.96478      .   S
    C9     O401      1.02540      .   S
    C263   O401      1.02540      .   S
    C9     O402      1.21776      .   S
    C239   O402      1.21776      .   S
    C8     O403      0.96283      .   S
    C272   O403      0.96283      .   S
    C8     O404      1.02770      .   S
    C262   O404      1.02770      .   S
    C8     O405      1.21852      .   S
    C238   O405      1.21852      .   S
    C284   O406      0.72095      .   S
    C180   O406      0.72095      .   S
    C284   O407      0.68305      .   S
    C172   O407      0.68305      .   S
    C285   O408      0.72072      .   S
    C181   O408      0.72072      .   S
    C285   O409      0.68304      .   S
    C173   O409      0.68304      .   S
    C273   O410      0.59195      .   S
    C210   O410      0.59195      .   S
    C272   O411      0.59174      .   S
    C211   O411      0.59174  1_655   S
    C210   O412      0.82790      .   S
    C242   O412      0.82790      .   S
    C211   O413      0.82763      .   S
    C243   O413      0.82763      .   S
    C167   O414      0.54935      .   S
    C63    O414      0.54935      .   S
    C167   O415      0.72095      .   S
    C283   O415      0.72095      .   S
    C166   O416      0.54931      .   S
    C62    O416      0.54931      .   S
    C166   O417      0.72097      .   S
    C282   O417      0.72097      .   S
    C243   O418      1.17691      .   S
    C15    O418      1.17691      .   S
    C242   O419      1.17788      .   S
    C14    O419      1.17788      .   S
    C171   O420      0.67189      .   S
    C263   O420      0.67189      .   S
    C171   O421      0.70207      .   S
    C173   O421      0.70207      .   S
    C170   O422      0.67198      .   S
    C262   O422      0.67198      .   S
    C170   O423      0.70223      .   S
    C172   O423      0.70223      .   S
    C54    O424      0.54361  1_655   S
    C160   O424      0.54361      .   S
    C55    O425      0.54359      .   S
    C161   O425      0.54359      .   S
    C180   O426      0.55020      .   S
    C72    O426      0.55020      .   S
    C180   O427      0.54956      .   S
    C74    O427      0.54956      .   S
    C181   O428      0.55020      .   S
    C73    O428      0.55020      .   S
    C181   O429      0.54935      .   S
    C75    O429      0.54935      .   S
    C263   O430      0.67777      .   S
    C179   O430      0.67777      .   S
    C262   O431      0.67780      .   S
    C178   O431      0.67780      .   S
    C173   O432      0.69899      .   S
    C175   O432      0.69899      .   S
    C172   O433      0.69896      .   S
    C174   O433      0.69896      .   S
    C15    O434      0.96455      .   S
    C265   O434      0.96455      .   S
    C15    O435      1.02539      .   S
    C275   O435      1.02539      .   S
    C14    O436      0.96276      .   S
    C264   O436      0.96276      .   S
    C14    O437      1.02623      .   S
    C274   O437      1.02623      .   S
    C265   O438      0.59200      .   S
    C183   O438      0.59200      .   S
    C264   O439      0.59196      .   S
    C182   O439      0.59196      .   S
    C183   O440      0.82798      .   S
    C239   O440      0.82798      .   S
    C182   O441      0.82774      .   S
    C238   O441      0.82774      .   S
    C283   O442      0.68331      .   S
    C158   O442      0.68331      .   S
    C282   O443      0.68340      .   S
    C159   O443      0.68340      .   S
    C160   O444      0.69907      .   S
    C158   O444      0.69907  1_655   S
    C160   O445      0.69752      .   S
    C162   O445      0.69752      .   S
    C161   O446      0.69911      .   S
    C159   O446      0.69911      .   S
    C161   O447      0.69755      .   S
    C163   O447      0.69755      .   S
    C56    O448      0.54452      .   S
    C162   O448      0.54452  1_545   S
    C57    O449      0.54452      .   S
    C163   O449      0.54452  1_545   S
    C158   O450      0.70212  1_655   S
    C156   O450      0.70212      .   S
    C159   O451      0.70206      .   S
    C157   O451      0.70206      .   S
    C162   O452      0.69354      .   S
    C164   O452      0.69354      .   S
    C163   O453      0.69356      .   S
    C165   O453      0.69356      .   S
    C179   O454      0.54470      .   S
    C71    O454      0.54470      .   S
    C179   O455      0.69355      .   S
    C177   O455      0.69355      .   S
    C178   O456      0.54470      .   S
    C70    O456      0.54470      .   S
    C178   O457      0.69360      .   S
    C176   O457      0.69360      .   S
    C175   O458      0.54360      .   S
    C67    O458      0.54360      .   S
    C175   O459      0.69749      .   S
    C177   O459      0.69749      .   S
    C174   O460      0.54361      .   S
    C66    O460      0.54361      .   S
    C174   O461      0.69748      .   S
    C176   O461      0.69748      .   S
    C106   O462      0.54471      .   S
    C220   O462      0.54471      .   S
    C274   O463      0.67784      .   S
    C220   O463      0.67784      .   S
    C274   O464      0.67203      .   S
    C212   O464      0.67203      .   S
    C275   O465      0.67786      .   S
    C221   O465      0.67786      .   S
    C275   O466      0.67212      .   S
    C213   O466      0.67212      .   S
    C107   O467      0.54469      .   S
    C221   O467      0.54469      .   S
    C21    O468      0.54424      .   S
    C121   O468      0.54424      .   S
    C20    O469      0.54466      .   S
    C120   O469      0.54466      .   S
    C177   O470      0.54466      .   S
    C69    O470      0.54466      .   S
    C176   O471      0.54461      .   S
    C68    O471      0.54461      .   S
    C101   O472      0.54511      .   S
    C213   O472      0.54511      .   S
    C100   O473      0.54510      .   S
    C212   O473      0.54510      .   S
    C157   O474      0.54513      .   S
    C53    O474      0.54513      .   S
    C157   O475      0.67204      .   S
    C259   O475      0.67204      .   S
    C156   O476      0.54512      .   S
    C52    O476      0.54512      .   S
    C156   O477      0.67211      .   S
    C258   O477      0.67211      .   S
    C220   O478      0.69356      .   S
    C218   O478      0.69356      .   S
    C221   O479      0.69354      .   S
    C219   O479      0.69354      .   S
    C164   O480      0.54468      .   S
    C58    O480      0.54468      .   S
    C164   O481      0.67785      .   S
    C258   O481      0.67785      .   S
    C165   O482      0.67781      .   S
    C259   O482      0.67781      .   S
    C165   O483      0.54468      .   S
    C59    O483      0.54468      .   S
    C213   O484      0.67833      .   S
    C215   O484      0.67833  1_455   S
    C212   O485      0.70212      .   S
    C214   O485      0.70212      .   S
    C121   O486      0.69767      .   S
    C119   O486      0.69767      .   S
    C121   O487      0.69383      .   S
    C123   O487      0.69383      .   S
    C120   O488      0.69748      .   S
    C118   O488      0.69748      .   S
    C120   O489      0.69356      .   S
    C122   O489      0.69356      .   S
    C19    O490      0.54364      .   S
    C119   O490      0.54364      .   S
    C18    O491      0.54360      .   S
    C118   O491      0.54360      .   S
    C258   O492      1.02540      .   S
    C6     O492      1.02540      .   S
    C259   O493      1.02621      .   S
    C7     O493      1.02621      .   S
    C23    O494      0.54473      .   S
    C123   O494      0.54473      .   S
    C22    O495      0.54471      .   S
    C122   O495      0.54471      .   S
    C119   O496      0.69894      .   S
    C117   O496      0.69894      .   S
    C118   O497      0.69900      .   S
    C116   O497      0.69900      .   S
    C123   O498      0.67771      .   S
    C247   O498      0.67771      .   S
    C122   O499      0.67738      .   S
    C246   O499      0.67738      .   S
    C218   O500      0.54453  1_565   S
    C104   O500      0.54453      .   S
    C218   O501      0.69755      .   S
    C216   O501      0.69755      .   S
    C219   O502      0.54451  1_565   S
    C105   O502      0.54451      .   S
    C219   O503      0.69753      .   S
    C217   O503      0.69753      .   S
    C214   O504      0.69910      .   S
    C216   O504      0.69910      .   S
    C214   O505      0.68340      .   S
    C291   O505      0.68340      .   S
    C215   O506      0.68229  1_455   S
    C217   O506      0.68229      .   S
    C215   O507      0.72743      .   S
    C290   O507      0.72743      .   S
    C26    O508      0.54954      .   S
    C124   O508      0.54954      .   S
    C27    O509      0.54915      .   S
    C125   O509      0.54915      .   S
    C231   O510      0.82775      .   S
    C127   O510      0.82775      .   S
    C231   O511      1.21824      .   S
    C1     O511      1.21824      .   S
    C231   O512      1.17375      .   S
    C3     O512      1.17375      .   S
    C230   O513      0.82798      .   S
    C126   O513      0.82798      .   S
    C230   O514      1.21788      .   S
    C0     O514      1.21788      .   S
    C230   O515      1.17526      .   S
    C2     O515      1.17526      .   S
    C216   O516      0.54358      .   S
    C102   O516      0.54358      .   S
    C217   O517      0.51885      .   S
    C103   O517      0.51885  1_455   S
    C291   O518      0.72094      .   S
    C223   O518      0.72094      .   S
    C290   O519      0.72095      .   S
    C222   O519      0.72095      .   S
    C127   O520      0.59195      .   S
    C249   O520      0.59195      .   S
    C126   O521      0.59201      .   S
    C248   O521      0.59201      .   S
    C249   O522      0.96282      .   S
    C7     O522      0.96282      .   S
    C248   O523      0.96456      .   S
    C6     O523      0.96456      .   S
    C25    O524      0.55001      .   S
    C125   O524      0.55001      .   S
    C24    O525      0.55019      .   S
    C124   O525      0.55019      .   S
    C7     O526      1.17790      .   S
    C235   O526      1.17790      .   S
    C7     O527      1.21663      .   S
    C233   O527      1.21663      .   S
    C7     O528      1.34274      .   S
    C5     O528      1.34274      .   S
    C6     O529      1.17678      .   S
    C234   O529      1.17678      .   S
    C6     O530      1.21645      .   S
    C232   O530      1.21645      .   S
    C6     O531      1.34332      .   S
    C4     O531      1.34332      .   S
    C117   O532      0.70223      .   S
    C115   O532      0.70223      .   S
    C117   O533      0.68306      .   S
    C277   O533      0.68306      .   S
    C116   O534      0.70208      .   S
    C114   O534      0.70208      .   S
    C116   O535      0.68304      .   S
    C276   O535      0.68304      .   S
    C247   O536      0.67199      .   S
    C115   O536      0.67199      .   S
    C247   O537      1.02751      .   S
    C1     O537      1.02751      .   S
    C246   O538      0.67208      .   S
    C114   O538      0.67208      .   S
    C246   O539      1.02556      .   S
    C0     O539      1.02556      .   S
    C125   O540      0.72120      .   S
    C277   O540      0.72120      .   S
    C125   O541      0.76957      .   S
    C225   O541      0.76957      .   S
    C124   O542      0.72071      .   S
    C276   O542      0.72071      .   S
    C124   O543      0.76885      .   S
    C224   O543      0.76885      .   S
    C111   O544      0.54951      .   S
    C223   O544      0.54951      .   S
    C110   O545      0.54953      .   S
    C222   O545      0.54953      .   S
    C115   O546      0.54516      .   S
    C17    O546      0.54516      .   S
    C114   O547      0.54515      .   S
    C16    O547      0.54515      .   S
    C235   O548      0.82790      .   S
    C155   O548      0.82790      .   S
    C235   O549      1.21289      .   S
    C5     O549      1.21289      .   S
    C234   O550      0.82763      .   S
    C154   O550      0.82763      .   S
    C234   O551      1.21132      .   S
    C4     O551      1.21132      .   S
    C223   O552      0.76925      .   S
    C225   O552      0.76925      .   S
    C223   O553      0.55019      .   S
    C109   O553      0.55019      .   S
    C222   O554      0.76911      .   S
    C224   O554      0.76911      .   S
    C222   O555      0.55020      .   S
    C108   O555      0.55020      .   S
    C154   O556      0.59175  1_455   S
    C257   O556      0.59175      .   S
    C155   O557      0.59194      .   S
    C256   O557      0.59194      .   S
    C257   O558      0.96275      .   S
    C1     O558      0.96275      .   S
    C256   O559      0.96482      .   S
    C0     O559      0.96482      .   S
    C1     O560      1.33682      .   S
    C3     O560      1.33682      .   S
    C1     O561      1.17601      .   S
    C229   O561      1.17601      .   S
    C0     O562      1.33431      .   S
    C2     O562      1.33431      .   S
    C0     O563      1.17583      .   S
    C228   O563      1.17583      .   S
    C28    O564      0.54512      .   S
    C128   O564      0.54512  1_565   S
    C29    O565      0.54515      .   S
    C129   O565      0.54515  1_565   S
    C97    O566      0.55016      .   S
    C209   O566      0.55016      .   S
    C96    O567      0.55017      .   S
    C208   O567      0.55017      .   S
    C225   O568      0.76894      .   S
    C209   O568      0.76894      .   S
    C225   O569      0.76935      .   S
    C139   O569      0.76935      .   S
    C224   O570      0.76884      .   S
    C208   O570      0.76884      .   S
    C224   O571      0.76934      .   S
    C138   O571      0.76934      .   S
    C2     O572      0.96469      .   S
    C252   O572      0.96469      .   S
    C2     O573      1.02815      .   S
    C250   O573      1.02815      .   S
    C2     O574      1.21434      .   S
    C228   O574      1.21434      .   S
    C3     O575      0.96598      .   S
    C253   O575      0.96598      .   S
    C3     O576      1.02764      .   S
    C251   O576      1.02764      .   S
    C3     O577      1.21184      .   S
    C229   O577      1.21184      .   S
    C278   O578      0.72060      .   S
    C138   O578      0.72060      .   S
    C278   O579      0.68303      .   S
    C130   O579      0.68303      .   S
    C279   O580      0.72058      .   S
    C139   O580      0.72058      .   S
    C279   O581      0.68311      .   S
    C131   O581      0.68311      .   S
    C252   O582      0.59191      .   S
    C141   O582      0.59191      .   S
    C253   O583      0.59179      .   S
    C140   O583      0.59179  1_455   S
    C141   O584      0.82790      .   S
    C233   O584      0.82790      .   S
    C140   O585      0.82787      .   S
    C232   O585      0.82787      .   S
    C233   O586      1.17614      .   S
    C5     O586      1.17614      .   S
    C232   O587      1.17572      .   S
    C4     O587      1.17572      .   S
    C209   O588      0.54948      .   S
    C99    O588      0.54948      .   S
    C209   O589      0.72096      .   S
    C289   O589      0.72096      .   S
    C208   O590      0.54953      .   S
    C98    O590      0.54953      .   S
    C208   O591      0.72070      .   S
    C288   O591      0.72070      .   S
    C128   O592      0.67183  1_565   S
    C250   O592      0.67183      .   S
    C128   O593      0.70225      .   S
    C130   O593      0.70225      .   S
    C129   O594      0.67179  1_565   S
    C251   O594      0.67179      .   S
    C129   O595      0.70224      .   S
    C131   O595      0.70224      .   S
    C91    O596      0.52994  1_455   S
    C203   O596      0.52994      .   S
    C90    O597      0.54350      .   S
    C202   O597      0.54350      .   S
    C139   O598      0.55034      .   S
    C37    O598      0.55034      .   S
    C139   O599      0.54964      .   S
    C39    O599      0.54964      .   S
    C138   O600      0.55037      .   S
    C36    O600      0.55037      .   S
    C138   O601      0.54958      .   S
    C38    O601      0.54958      .   S
    C250   O602      0.67771      .   S
    C136   O602      0.67771      .   S
    C251   O603      0.67797      .   S
    C137   O603      0.67797      .   S
    C130   O604      0.69887      .   S
    C132   O604      0.69887      .   S
    C131   O605      0.69895      .   S
    C133   O605      0.69895      .   S
    C5     O606      0.96326      .   S
    C245   O606      0.96326      .   S
    C5     O607      1.02929      .   S
    C255   O607      1.02929      .   S
    C4     O608      0.96489      .   S
    C244   O608      0.96489      .   S
    C4     O609      1.02788      .   S
    C254   O609      1.02788      .   S
    C245   O610      0.59196      .   S
    C113   O610      0.59196      .   S
    C244   O611      0.59201      .   S
    C112   O611      0.59201      .   S
    C112   O612      0.82797      .   S
    C228   O612      0.82797      .   S
    C113   O613      0.82775      .   S
    C229   O613      0.82775      .   S
    C289   O614      0.68347      .   S
    C200   O614      0.68347      .   S
    C288   O615      0.72150      .   S
    C201   O615      0.72150      .   S
    C203   O616      0.68360      .   S
    C201   O616      0.68360  1_455   S
    C203   O617      0.69745      .   S
    C205   O617      0.69745      .   S
    C202   O618      0.69904      .   S
    C200   O618      0.69904      .   S
    C202   O619      0.69750      .   S
    C204   O619      0.69750      .   S
    C93    O620      0.54465      .   S
    C205   O620      0.54465      .   S
    C92    O621      0.54465      .   S
    C204   O621      0.54465      .   S
    C200   O622      0.70237      .   S
    C198   O622      0.70237      .   S
    C201   O623      0.68199  1_455   S
    C199   O623      0.68199      .   S
    C137   O624      0.54473      .   S
    C35    O624      0.54473      .   S
    C137   O625      0.69356  1_545   S
    C135   O625      0.69356      .   S
    C136   O626      0.54472      .   S
    C34    O626      0.54472      .   S
    C136   O627      0.69352  1_545   S
    C134   O627      0.69352      .   S
    C133   O628      0.54362      .   S
    C31    O628      0.54362      .   S
    C133   O629      0.69759      .   S
    C135   O629      0.69759      .   S
    C132   O630      0.54366      .   S
    C30    O630      0.54366      .   S
    C132   O631      0.69758      .   S
    C134   O631      0.69758      .   S
    C47    O632      0.54473      .   S
    C151   O632      0.54473      .   S
    C46    O633      0.54469      .   S
    C150   O633      0.54469      .   S
    C255   O634      0.67779      .   S
    C151   O634      0.67779      .   S
    C254   O635      0.67778      .   S
    C150   O635      0.67778      .   S
