# CIF file generated by openbabel 2.4.90, see http://openbabel.sf.net
data_I
_chemical_name_common ''
_cell_length_a 21.644
_cell_length_b 13.83
_cell_length_c 13.69
_cell_angle_alpha 90.487
_cell_angle_beta 89.967
_cell_angle_gamma 90.27
_space_group_name_H-M_alt 'P 1'
_space_group_name_Hall 'P 1'
loop_
    _symmetry_equiv_pos_as_xyz
    x,y,z
loop_
    _atom_site_label
    _atom_site_type_symbol
    _atom_site_fract_x
    _atom_site_fract_y
    _atom_site_fract_z
    _atom_site_occupancy
    N0      N    0.37296   0.25305   0.24958   1.000
    N1      N    0.62709   0.74696   0.75038   1.000
    N2      N    0.87237   0.25272   0.24941   1.000
    N3      N    0.23521   0.29153   0.86758   1.000
    N4      N    0.12766   0.74731   0.75055   1.000
    N5      N    0.98619   0.36674   0.70805   1.000
    N6      N    0.73593   0.20799   0.63039   1.000
    N7      N    0.76482   0.70848   0.13239   1.000
    N8      N    0.98490   0.13325   0.79094   1.000
    N9      N    0.51416   0.63385   0.29177   1.000
    N10     N    0.48587   0.36617   0.70816   1.000
    N11     N    0.01388   0.63330   0.29189   1.000
    N12     N    0.26424   0.70791   0.13237   1.000
    N13     N    0.26410   0.79206   0.36956   1.000
    N14     N    0.48560   0.13364   0.79061   1.000
    N15     N    0.51443   0.86638   0.20934   1.000
    N16     N    0.23529   0.20733   0.63094   1.000
    N17     N    0.73580   0.29213   0.86757   1.000
    N18     N    0.01513   0.86677   0.20895   1.000
    N19     N    0.76474   0.79267   0.36901   1.000
    Zr20    Zr   0.39483   0.75008   0.25155   1.000
    O21     O    0.34723   0.76926   0.30734   1.000
    O22     O    0.41983   0.79685   0.37411   1.000
    O23     O    0.34730   0.73078   0.19540   1.000
    O24     O    0.41944   0.70253   0.12884   1.000
    O25     O    0.43812   0.69044   0.27232   1.000
    O26     O    0.43827   0.80978   0.23005   1.000
    Zr27    Zr   0.85505   0.24966   0.74984   1.000
    O28     O    0.83129   0.37063   0.70210   1.000
    O29     O    0.90285   0.30481   0.73063   1.000
    O30     O    0.81179   0.27161   0.81023   1.000
    O31     O    0.81186   0.22794   0.68883   1.000
    O32     O    0.90218   0.19479   0.76888   1.000
    O33     O    0.83093   0.12805   0.79792   1.000
    Zr34    Zr   0.60520   0.24994   0.74841   1.000
    O35     O    0.56190   0.30958   0.72763   1.000
    O36     O    0.56176   0.19025   0.76990   1.000
    O37     O    0.65274   0.26925   0.80455   1.000
    O38     O    0.58060   0.29749   0.87111   1.000
    O39     O    0.65280   0.23077   0.69261   1.000
    O40     O    0.58021   0.20317   0.62585   1.000
    Zr41    Zr   0.64523   0.75054   0.25001   1.000
    O42     O    0.68862   0.77242   0.31082   1.000
    O43     O    0.59749   0.69554   0.26920   1.000
    O44     O    0.66886   0.62947   0.29768   1.000
    O45     O    0.59762   0.80515   0.23116   1.000
    O46     O    0.66880   0.87208   0.20198   1.000
    O47     O    0.68866   0.72876   0.18967   1.000
    Zr48    Zr   0.10470   0.24995   0.74848   1.000
    O49     O    0.15220   0.23050   0.69286   1.000
    O50     O    0.07963   0.20315   0.62582   1.000
    O51     O    0.08003   0.29739   0.87119   1.000
    O52     O    0.15217   0.26902   0.80460   1.000
    O53     O    0.06181   0.30983   0.72763   1.000
    O54     O    0.06116   0.19011   0.77007   1.000
    Zr55    Zr   0.35480   0.24948   0.74994   1.000
    O56     O    0.40254   0.30448   0.73074   1.000
    O57     O    0.33117   0.37056   0.70226   1.000
    O58     O    0.31137   0.27126   0.81029   1.000
    O59     O    0.40241   0.19487   0.76879   1.000
    O60     O    0.33122   0.12795   0.79796   1.000
    O61     O    0.31141   0.22759   0.68912   1.000
    Zr62    Zr   0.14500   0.75037   0.25009   1.000
    O63     O    0.18818   0.77210   0.31111   1.000
    O64     O    0.09786   0.80523   0.23104   1.000
    O65     O    0.16911   0.87198   0.20202   1.000
    O66     O    0.18825   0.72842   0.18971   1.000
    O67     O    0.09721   0.69522   0.26930   1.000
    O68     O    0.16877   0.62940   0.29783   1.000
    Zr69    Zr   0.89534   0.75008   0.25146   1.000
    O70     O    0.93825   0.69020   0.27230   1.000
    O71     O    0.93887   0.80991   0.22985   1.000
    O72     O    0.84787   0.73100   0.19535   1.000
    O73     O    0.91987   0.70263   0.12876   1.000
    O74     O    0.84783   0.76952   0.30709   1.000
    O75     O    0.92020   0.79687   0.37413   1.000
loop_
    _geom_bond_atom_site_label_1
    _geom_bond_atom_site_label_2
    _geom_bond_distance
    _geom_bond_site_symmetry_2
    _ccdc_geom_bond_type
    Zr20   O21       1.30893      .   S
    N13    O21       2.01524      .   S
    Zr20   O22       1.87234      .   S
    N1     O22       6.87388      .   S
    Zr20   O23       1.30968      .   S
    N12    O23       2.01698      .   S
    Zr20   O24       1.87660      .   S
    N1     O24       6.88635  1_556   S
    Zr20   O25       1.28492      .   S
    N9     O25       1.84606      .   S
    Zr20   O26       1.28402      .   S
    N15    O26       1.84443      .   S
    Zr27   O28       1.87541      .   S
    N1     O28       6.87135      .   S
    Zr27   O29       1.31038      .   S
    N5     O29       2.01788      .   S
    Zr27   O30       1.28444      .   S
    N17    O30       1.84419      .   S
    Zr27   O31       1.28668      .   S
    N6     O31       1.84659      .   S
    Zr27   O32       1.30212      .   S
    N8     O32       2.01008      .   S
    Zr27   O33       1.88277      .   S
    N1     O33       6.88427  1_565   S
    Zr34   O35       1.28497      .   S
    N10    O35       1.84613      .   S
    Zr34   O36       1.28401      .   S
    N14    O36       1.84442      .   S
    Zr34   O37       1.30969      .   S
    N17    O37       2.01703      .   S
    Zr34   O38       1.87652      .   S
    N0     O38       6.88627  1_554   S
    Zr34   O39       1.30896      .   S
    N6     O39       2.01527      .   S
    Zr34   O40       1.87233      .   S
    N0     O40       6.87367      .   S
    Zr41   O42       1.28866      .   S
    N19    O42       1.84966      .   S
    Zr41   O43       1.30803      .   S
    N9     O43       2.01643      .   S
    Zr41   O44       1.87571      .   S
    N2     O44       6.86596      .   S
    Zr41   O45       1.30769      .   S
    N15    O45       2.01675      .   S
    Zr41   O46       1.87835      .   S
    N2     O46       6.87554  1_545   S
    Zr41   O47       1.28613      .   S
    N7     O47       1.84669      .   S
    Zr48   O49       1.30670      .   S
    N16    O49       2.01344      .   S
    Zr48   O50       1.87406      .   S
    N2     O50       6.87491  1_655   S
    Zr48   O51       1.87654      .   S
    N2     O51       6.88433  1_654   S
    Zr48   O52       1.30775      .   S
    N3     O52       2.01562      .   S
    Zr48   O53       1.28094      .   S
    N5     O53       1.84023  1_655   S
    Zr48   O54       1.28715      .   S
    N8     O54       1.84819  1_655   S
    Zr55   O56       1.30801      .   S
    N10    O56       2.01642      .   S
    Zr55   O57       1.87578      .   S
    N4     O57       6.86598      .   S
    Zr55   O58       1.28619      .   S
    N3     O58       1.84672      .   S
    Zr55   O59       1.30771      .   S
    N14    O59       2.01676      .   S
    Zr55   O60       1.87834      .   S
    N4     O60       6.87551  1_565   S
    Zr55   O61       1.28865      .   S
    N16    O61       1.84958      .   S
    Zr62   O63       1.28678      .   S
    N13    O63       1.84661      .   S
    Zr62   O64       1.30224      .   S
    N18    O64       2.01025      .   S
    Zr62   O65       1.88267      .   S
    N0     O65       6.88413  1_545   S
    Zr62   O66       1.28432      .   S
    N12    O66       1.84408      .   S
    Zr62   O67       1.31014      .   S
    N11    O67       2.01763      .   S
    Zr62   O68       1.87553      .   S
    N0     O68       6.87142      .   S
    Zr69   O70       1.28110      .   S
    N11    O70       1.84052  1_455   S
    Zr69   O71       1.28712      .   S
    N18    O71       1.84811  1_455   S
    Zr69   O72       1.30773      .   S
    N7     O72       2.01563      .   S
    Zr69   O73       1.87553      .   S
    N4     O73       6.88608  1_456   S
    Zr69   O74       1.30683      .   S
    N19    O74       2.01356      .   S
    Zr69   O75       1.87288      .   S
    N4     O75       6.87778  1_455   S
