# CIF file generated by openbabel 2.4.90, see http://openbabel.sf.net
data_I
_chemical_name_common ''
_cell_length_a 9.796
_cell_length_b 11.607
_cell_length_c 13.79
_cell_angle_alpha 65.865
_cell_angle_beta 88.867
_cell_angle_gamma 81.927
_space_group_name_H-M_alt 'P 1'
_space_group_name_Hall 'P 1'
loop_
    _symmetry_equiv_pos_as_xyz
    x,y,z
loop_
    _atom_site_label
    _atom_site_type_symbol
    _atom_site_fract_x
    _atom_site_fract_y
    _atom_site_fract_z
    _atom_site_occupancy
    Cd0     Cd   0.83067   0.13141   0.50967   1.000
    Cd1     Cd   0.49994   0.00002   0.49999   1.000
    Cd2     Cd   0.16923   0.86862   0.49031   1.000
