# CIF file generated by openbabel 2.4.90, see http://openbabel.sf.net
data_I
_chemical_name_common ''
_cell_length_a 9.796
_cell_length_b 11.607
_cell_length_c 13.79
_cell_angle_alpha 65.865
_cell_angle_beta 88.867
_cell_angle_gamma 81.927
_space_group_name_H-M_alt 'P 1'
_space_group_name_Hall 'P 1'
loop_
    _symmetry_equiv_pos_as_xyz
    x,y,z
loop_
    _atom_site_label
    _atom_site_type_symbol
    _atom_site_fract_x
    _atom_site_fract_y
    _atom_site_fract_z
    _atom_site_occupancy
    C0      C    0.16923   0.86862   0.49031   1.000
    C1      C    0.83067   0.13141   0.50967   1.000
    C2      C    0.49994   0.00002   0.49999   1.000
    C3      C    0.30195   0.46177   0.91225   1.000
    C4      C    0.62675   0.68116   0.89964   1.000
    C5      C    0.63109   0.06404   0.11750   1.000
    C6      C    0.29328   0.89223   0.06625   1.000
    C7      C    0.13120   0.59310   0.59619   1.000
    C8      C    0.77172   0.61163   0.41080   1.000
    C9      C    0.69792   0.53829   0.08775   1.000
    C10     C    0.37311   0.31891   0.10036   1.000
    C11     C    0.36865   0.93614   0.88244   1.000
    C12     C    0.70648   0.10796   0.93369   1.000
    C13     C    0.86869   0.40696   0.40375   1.000
    C14     C    0.22817   0.38843   0.58914   1.000
    C15     C    0.42088   0.66685   0.78291   1.000
    C16     C    0.46002   0.58076   0.89344   1.000
    C17     C    0.38835   0.47854   0.95090   1.000
    C18     C    0.57191   0.60126   0.94398   1.000
    C19     C    0.41672   0.95095   0.21225   1.000
    C20     C    0.45770   0.97501   0.10393   1.000
    C21     C    0.57448   0.03571   0.06567   1.000
    C22     C    0.38336   0.93980   0.03690   1.000
    C23     C    0.88371   0.73921   0.50272   1.000
    C24     C    0.94565   0.61778   0.50137   1.000
    C25     C    0.07470   0.55465   0.55157   1.000
    C26     C    0.87124   0.56183   0.45023   1.000
    C27     C    0.57899   0.33321   0.21709   1.000
    C28     C    0.53985   0.41930   0.10656   1.000
    C29     C    0.61152   0.52152   0.04910   1.000
    C30     C    0.42796   0.39880   0.05602   1.000
    C31     C    0.58320   0.04902   0.78775   1.000
    C32     C    0.54220   0.02498   0.89606   1.000
    C33     C    0.42533   0.96439   0.93430   1.000
    C34     C    0.61647   0.06028   0.96306   1.000
    C35     C    0.11618   0.26084   0.49723   1.000
    C36     C    0.05424   0.38227   0.49857   1.000
    C37     C    0.92519   0.44541   0.44837   1.000
    C38     C    0.12865   0.43823   0.54970   1.000
    C39     C    0.50031   0.75478   0.72288   1.000
    C40     C    0.43199   0.81651   0.63024   1.000
    C41     C    0.31416   0.76796   0.63292   1.000
    C42     C    0.30443   0.67294   0.72843   1.000
    C43     C    0.29532   0.91588   0.25467   1.000
    C44     C    0.30594   0.91008   0.35329   1.000
    C45     C    0.42930   0.93984   0.36951   1.000
    C46     C    0.50010   0.96552   0.28251   1.000
    C47     C    0.74648   0.77265   0.50271   1.000
    C48     C    0.73013   0.88762   0.50435   1.000
    C49     C    0.85104   0.92611   0.50489   1.000
    C50     C    0.95085   0.83336   0.50376   1.000
    C51     C    0.49957   0.24528   0.27712   1.000
    C52     C    0.56789   0.18355   0.36976   1.000
    C53     C    0.68571   0.23211   0.36708   1.000
    C54     C    0.69543   0.32713   0.27158   1.000
    C55     C    0.70459   0.08413   0.74532   1.000
    C56     C    0.69396   0.08993   0.64670   1.000
    C57     C    0.57061   0.06016   0.63048   1.000
    C58     C    0.49981   0.03447   0.71749   1.000
    C59     C    0.25341   0.22740   0.49724   1.000
    C60     C    0.26976   0.11242   0.49562   1.000
    C61     C    0.14885   0.07392   0.49508   1.000
    C62     C    0.04904   0.16668   0.49620   1.000
    O63     O    0.33832   0.91601   0.05158   1.000
    O64     O    0.42053   0.95740   0.07042   1.000
    O65     O    0.40435   0.95209   0.98560   1.000
    O66     O    0.65472   0.52991   0.06843   1.000
    O67     O    0.57568   0.47041   0.07783   1.000
    O68     O    0.59171   0.56139   0.99654   1.000
    O69     O    0.40054   0.35885   0.07819   1.000
    O70     O    0.48390   0.40905   0.08129   1.000
    O71     O    0.40816   0.43867   0.00346   1.000
    O72     O    0.51609   0.00536   0.08480   1.000
    O73     O    0.60278   0.04988   0.09158   1.000
    O74     O    0.59547   0.04800   0.01436   1.000
    O75     O    0.43721   0.96298   0.15809   1.000
    O76     O    0.55942   0.37626   0.16183   1.000
    O77     O    0.35602   0.93342   0.23346   1.000
    O78     O    0.45841   0.95824   0.24738   1.000
    O79     O    0.63721   0.33017   0.24434   1.000
    O80     O    0.53928   0.28925   0.24711   1.000
    O81     O    0.30063   0.91298   0.30398   1.000
    O82     O    0.69057   0.27962   0.31933   1.000
    O83     O    0.53373   0.21441   0.32344   1.000
    O84     O    0.46470   0.95268   0.32601   1.000
    O85     O    0.36762   0.92496   0.36140   1.000
    O86     O    0.23758   0.88935   0.42180   1.000
    O87     O    0.62680   0.20783   0.36842   1.000
    O88     O    0.75819   0.18176   0.43838   1.000
    O89     O    0.46462   0.96993   0.43475   1.000
    O90     O    0.53392   0.09178   0.43487   1.000
    O91     O    0.89694   0.42618   0.42606   1.000
    O92     O    0.82148   0.58673   0.43052   1.000
    O93     O    0.89821   0.50362   0.44930   1.000
    O94     O    0.98971   0.41384   0.47347   1.000
    O95     O    0.90845   0.58981   0.47580   1.000
    O96     O    0.15904   0.97127   0.49270   1.000
    O97     O    0.06004   0.85099   0.49704   1.000
    O98     O    0.24169   0.81829   0.56162   1.000
    O99     O    0.20931   0.09317   0.49535   1.000
    O100    O    0.09895   0.12030   0.49564   1.000
    O101    O    0.26158   0.16991   0.49643   1.000
    O102    O    0.38485   0.05622   0.49781   1.000
    O103    O    0.08261   0.21376   0.49671   1.000
    O104    O    0.93986   0.14905   0.50294   1.000
    O105    O    0.18479   0.24412   0.49723   1.000
    O106    O    0.08521   0.32155   0.49790   1.000
    O107    O    0.09144   0.41025   0.52413   1.000
    O108    O    0.61504   0.94382   0.50217   1.000
    O109    O    0.46597   0.90826   0.56511   1.000
    O110    O    0.53527   0.03009   0.56524   1.000
    O111    O    0.91468   0.67850   0.50205   1.000
    O112    O    0.01018   0.58621   0.52647   1.000
    O113    O    0.81510   0.75593   0.50272   1.000
    O114    O    0.73831   0.83013   0.50353   1.000
    O115    O    0.91728   0.78629   0.50324   1.000
    O116    O    0.90094   0.87974   0.50433   1.000
    O117    O    0.79058   0.90687   0.50462   1.000
    O118    O    0.84085   0.02876   0.50728   1.000
    O119    O    0.76232   0.11067   0.57818   1.000
    O120    O    0.10168   0.49644   0.55063   1.000
    O121    O    0.17841   0.41333   0.56942   1.000
    O122    O    0.10295   0.57387   0.57388   1.000
    O123    O    0.37307   0.79223   0.63158   1.000
    O124    O    0.46615   0.78564   0.67656   1.000
    O125    O    0.63228   0.07505   0.63859   1.000
    O126    O    0.53521   0.04731   0.67399   1.000
    O127    O    0.30930   0.72045   0.68067   1.000
    O128    O    0.69928   0.08703   0.69601   1.000
    O129    O    0.54151   0.04174   0.75262   1.000
    O130    O    0.46059   0.71081   0.75289   1.000
    O131    O    0.36266   0.66990   0.75567   1.000
    O132    O    0.64389   0.06658   0.76654   1.000
    O133    O    0.44045   0.62381   0.83818   1.000
    O134    O    0.56270   0.03700   0.84191   1.000
    O135    O    0.39699   0.95026   0.90837   1.000
    O136    O    0.51596   0.59101   0.91871   1.000
    O137    O    0.42419   0.52965   0.92217   1.000
    O138    O    0.48377   0.99468   0.91518   1.000
    O139    O    0.57934   0.04263   0.92956   1.000
    O140    O    0.59933   0.64121   0.92181   1.000
    O141    O    0.34515   0.47016   0.93157   1.000
    O142    O    0.66147   0.08412   0.94838   1.000
loop_
    _geom_bond_atom_site_label_1
    _geom_bond_atom_site_label_2
    _geom_bond_distance
    _geom_bond_site_symmetry_2
    _ccdc_geom_bond_type
    C22    O63       0.54482      .   S
    C6     O63       0.54482      .   S
    C22    O64       0.70194      .   S
    C20    O64       0.70194      .   S
    C22    O65       0.69505  1_554   S
    C33    O65       0.69505      .   S
    C29    O66       0.54483      .   S
    C9     O66       0.54483      .   S
    C29    O67       0.70207      .   S
    C28    O67       0.70207      .   S
    C29    O68       0.69514  1_554   S
    C18    O68       0.69514      .   S
    C30    O69       0.54446      .   S
    C10    O69       0.54446      .   S
    C30    O70       0.70401      .   S
    C28    O70       0.70401      .   S
    C30    O71       0.69514      .   S
    C17    O71       0.69514  1_556   S
    C21    O72       0.70393      .   S
    C20    O72       0.70393  1_565   S
    C21    O73       0.54446      .   S
    C5     O73       0.54446      .   S
    C21    O74       0.69506      .   S
    C34    O74       0.69506  1_556   S
    C20    O75       0.73087      .   S
    C19    O75       0.73087      .   S
    C28    O76       0.73125      .   S
    C27    O76       0.73125      .   S
    C19    O77       0.67751      .   S
    C43    O77       0.67751      .   S
    C19    O78       0.67796      .   S
    C46    O78       0.67796      .   S
    C27    O79       0.67794      .   S
    C54    O79       0.67794      .   S
    C27    O80       0.67803      .   S
    C51    O80       0.67803      .   S
    C43    O81       0.66964      .   S
    C44    O81       0.66964      .   S
    C54    O82       0.67022      .   S
    C53    O82       0.67022      .   S
    C51    O83       0.66028      .   S
    C52    O83       0.66028      .   S
    C46    O84       0.65993      .   S
    C45    O84       0.65993      .   S
    C44    O85       0.67470      .   S
    C45    O85       0.67470      .   S
    C44    O86       1.11050      .   S
    C0     O86       1.11050      .   S
    C53    O87       0.67364      .   S
    C52    O87       0.67364      .   S
    C53    O88       1.11955      .   S
    C1     O88       1.11955      .   S
    C45    O89       1.16372      .   S
    C2     O89       1.16372  1_545   S
    C52    O90       1.16496      .   S
    C2     O90       1.16496      .   S
    C13    O91       0.54577      .   S
    C37    O91       0.54577      .   S
    C8     O92       0.54449      .   S
    C26    O92       0.54449      .   S
    C37    O93       0.69521      .   S
    C26    O93       0.69521      .   S
    C37    O94       0.70248      .   S
    C36    O94       0.70248  1_455   S
    C26    O95       0.70324      .   S
    C24    O95       0.70324      .   S
    C0     O96       1.19548      .   S
    C61    O96       1.19548  1_545   S
    C0     O97       1.11202      .   S
    C50    O97       1.11202  1_655   S
    C0     O98       1.11955      .   S
    C41    O98       1.11955      .   S
    C61    O99       0.66228      .   S
    C60    O99       0.66228      .   S
    C61    O100      0.67689      .   S
    C62    O100      0.67689      .   S
    C60    O101      0.66545      .   S
    C59    O101      0.66545      .   S
    C60    O102      1.21501      .   S
    C2     O102      1.21501      .   S
    C62    O103      0.67858      .   S
    C35    O103      0.67858      .   S
    C62    O104      1.11203  1_455   S
    C1     O104      1.11203      .   S
    C35    O105      0.67289      .   S
    C59    O105      0.67289      .   S
    C35    O106      0.73074      .   S
    C36    O106      0.73074      .   S
    C36    O107      0.70324      .   S
    C38    O107      0.70324      .   S
    C2     O108      1.21505  1_545   S
    C48    O108      1.21505      .   S
    C2     O109      1.16496  1_545   S
    C40    O109      1.16496      .   S
    C2     O110      1.16369      .   S
    C57    O110      1.16369      .   S
    C24    O111      0.73073      .   S
    C23    O111      0.73073      .   S
    C24    O112      0.70248  1_655   S
    C25    O112      0.70248      .   S
    C47    O113      0.67289      .   S
    C23    O113      0.67289      .   S
    C47    O114      0.66545      .   S
    C48    O114      0.66545      .   S
    C23    O115      0.67858      .   S
    C50    O115      0.67858      .   S
    C50    O116      0.67689      .   S
    C49    O116      0.67689      .   S
    C48    O117      0.66227      .   S
    C49    O117      0.66227      .   S
    C49    O118      1.19549  1_565   S
    C1     O118      1.19549      .   S
    C1     O119      1.11050      .   S
    C56    O119      1.11050      .   S
    C38    O120      0.69520      .   S
    C25    O120      0.69520      .   S
    C38    O121      0.54449      .   S
    C14    O121      0.54449      .   S
    C25    O122      0.54578      .   S
    C7     O122      0.54578      .   S
    C40    O123      0.67363      .   S
    C41    O123      0.67363      .   S
    C40    O124      0.66028      .   S
    C39    O124      0.66028      .   S
    C57    O125      0.67470      .   S
    C56    O125      0.67470      .   S
    C57    O126      0.65993      .   S
    C58    O126      0.65993      .   S
    C41    O127      0.67022      .   S
    C42    O127      0.67022      .   S
    C56    O128      0.66964      .   S
    C55    O128      0.66964      .   S
    C58    O129      0.67795      .   S
    C31    O129      0.67795      .   S
    C39    O130      0.67803      .   S
    C15    O130      0.67803      .   S
    C42    O131      0.67794      .   S
    C15    O131      0.67794      .   S
    C55    O132      0.67751      .   S
    C31    O132      0.67751      .   S
    C15    O133      0.73125      .   S
    C16    O133      0.73125      .   S
    C31    O134      0.73089      .   S
    C32    O134      0.73089      .   S
    C11    O135      0.54447      .   S
    C33    O135      0.54447      .   S
    C16    O136      0.70402      .   S
    C18    O136      0.70402      .   S
    C16    O137      0.70206      .   S
    C17    O137      0.70206      .   S
    C32    O138      0.70399  1_545   S
    C33    O138      0.70399      .   S
    C32    O139      0.70193      .   S
    C34    O139      0.70193      .   S
    C4     O140      0.54446      .   S
    C18    O140      0.54446      .   S
    C3     O141      0.54483      .   S
    C17    O141      0.54483      .   S
    C12    O142      0.54483      .   S
    C34    O142      0.54483      .   S
