# CIF file generated by openbabel 2.4.90, see http://openbabel.sf.net
data_I
_chemical_name_common ''
_cell_length_a 12.489
_cell_length_b 15.682
_cell_length_c 15.687
_cell_angle_alpha 120.01
_cell_angle_beta 90.011
_cell_angle_gamma 89.908
_space_group_name_H-M_alt 'P 1'
_space_group_name_Hall 'P 1'
loop_
    _symmetry_equiv_pos_as_xyz
    x,y,z
loop_
    _atom_site_label
    _atom_site_type_symbol
    _atom_site_fract_x
    _atom_site_fract_y
    _atom_site_fract_z
    _atom_site_occupancy
    N0      N    0.24200   0.73633   0.53284   1.000
    N1      N    0.74199   0.73633   0.53277   1.000
    N2      N    0.40865   0.79619   0.26350   1.000
    N3      N    0.90865   0.79619   0.26350   1.000
    N4      N    0.57493   0.46699   0.20354   1.000
    N5      N    0.07494   0.46699   0.20354   1.000
    N6      N    0.07497   0.53314   0.79646   1.000
    N7      N    0.57497   0.53314   0.79646   1.000
    N8      N    0.40865   0.20367   0.73648   1.000
    N9      N    0.90865   0.20367   0.73648   1.000
    N10     N    0.74195   0.26344   0.46715   1.000
    N11     N    0.24196   0.26343   0.46715   1.000
    Zr12    Zr   0.42561   0.49959   0.49995   1.000
    O13     O    0.36853   0.57364   0.51122   1.000
    O14     O    0.36852   0.42573   0.48872   1.000
    O15     O    0.47574   0.51034   0.58722   1.000
    O16     O    0.47573   0.48909   0.41269   1.000
    Zr17    Zr   0.59223   0.99993   0.49975   1.000
    O18     O    0.64246   0.92321   0.51034   1.000
    O19     O    0.53516   0.93720   0.42585   1.000
    O20     O    0.64246   0.07660   0.48929   1.000
    O21     O    0.53516   0.06268   0.57379   1.000
    Zr22    Zr   0.09223   0.99993   0.49975   1.000
    O23     O    0.14247   0.92322   0.51036   1.000
    O24     O    0.14247   0.07661   0.48929   1.000
    O25     O    0.03517   0.93721   0.42585   1.000
    O26     O    0.03516   0.06268   0.57379   1.000
    Zr27    Zr   0.25868   0.50023   0.00029   1.000
    O28     O    0.20155   0.51152   0.93755   1.000
    O29     O    0.30900   0.58731   0.07689   1.000
    O30     O    0.30898   0.41294   0.92351   1.000
    O31     O    0.20153   0.48886   0.06287   1.000
    Zr32    Zr   0.92561   0.49959   0.49995   1.000
    O33     O    0.86851   0.42573   0.48872   1.000
    O34     O    0.97574   0.51033   0.58723   1.000
    O35     O    0.97573   0.48909   0.41269   1.000
    O36     O    0.86852   0.57363   0.51120   1.000
    Zr37    Zr   0.75867   0.50023   0.00029   1.000
    O38     O    0.80898   0.41294   0.92351   1.000
    O39     O    0.80899   0.58731   0.07689   1.000
    O40     O    0.70154   0.51152   0.93755   1.000
    O41     O    0.70152   0.48886   0.06287   1.000
loop_
    _geom_bond_atom_site_label_1
    _geom_bond_atom_site_label_2
    _geom_bond_distance
    _geom_bond_site_symmetry_2
    _ccdc_geom_bond_type
    Zr12   O13       1.29616      .   S
    N0     O13       2.87119      .   S
    Zr12   O14       1.29594      .   S
    N11    O14       2.87087      .   S
    Zr12   O15       1.43658      .   S
    N7     O15       3.35600      .   S
    Zr12   O16       1.43774      .   S
    N4     O16       3.35901      .   S
    Zr17   O18       1.43738      .   S
    N1     O18       3.35814      .   S
    Zr17   O19       1.29639      .   S
    N2     O19       2.87209      .   S
    Zr17   O20       1.43741  1_565   S
    N10    O20       3.35832      .   S
    Zr17   O21       1.29616  1_565   S
    N8     O21       2.87123      .   S
    Zr22   O23       1.43753      .   S
    N0     O23       3.35860      .   S
    Zr22   O24       1.43741  1_565   S
    N11    O24       3.35830      .   S
    Zr22   O25       1.29640      .   S
    N3     O25       2.87215  1_655   S
    Zr22   O26       1.29620  1_565   S
    N9     O26       2.87128  1_655   S
    Zr27   O28       1.29716  1_554   S
    N6     O28       2.87409      .   S
    Zr27   O29       1.43691      .   S
    N2     O29       3.35680      .   S
    Zr27   O30       1.43780  1_554   S
    N8     O30       3.35930      .   S
    Zr27   O31       1.29641      .   S
    N5     O31       2.87170      .   S
    Zr32   O33       1.29593      .   S
    N10    O33       2.87085      .   S
    Zr32   O34       1.43674      .   S
    N6     O34       3.35594  1_455   S
    Zr32   O35       1.43776      .   S
    N5     O35       3.35902  1_455   S
    Zr32   O36       1.29624      .   S
    N1     O36       2.87146      .   S
    Zr37   O38       1.43782  1_554   S
    N9     O38       3.35931      .   S
    Zr37   O39       1.43692      .   S
    N3     O39       3.35683      .   S
    Zr37   O40       1.29717  1_554   S
    N7     O40       2.87410      .   S
    Zr37   O41       1.29639      .   S
    N4     O41       2.87166      .   S
