# CIF file generated by openbabel 2.4.90, see http://openbabel.sf.net
data_I
_chemical_name_common ''
_cell_length_a 12.513
_cell_length_b 14.768
_cell_length_c 14.758
_cell_angle_alpha 120.039
_cell_angle_beta 90.035
_cell_angle_gamma 90.047
_space_group_name_H-M_alt 'P 1'
_space_group_name_Hall 'P 1'
loop_
    _symmetry_equiv_pos_as_xyz
    x,y,z
loop_
    _atom_site_label
    _atom_site_type_symbol
    _atom_site_fract_x
    _atom_site_fract_y
    _atom_site_fract_z
    _atom_site_occupancy
    In0     In   0.49964   0.50022   0.49948   1.000
    In1     In   0.83329   0.00041   0.50042   1.000
    C2      C    0.01195   0.49112   0.86740   1.000
    In3     In   0.16665   0.49946   0.99971   1.000
    C4      C    0.34654   0.37491   0.50703   1.000
    C5      C    0.68076   0.13076   0.62904   1.000
    C6      C    0.01198   0.50826   0.13198   1.000
    C7      C    0.34525   0.62471   0.49252   1.000
    C8      C    0.68073   0.86932   0.37166   1.000
    C9      C    0.31917   0.62804   0.13066   1.000
    C10     C    0.98778   0.86832   0.49179   1.000
    C11     C    0.65305   0.50764   0.37440   1.000
    C12     C    0.31906   0.37098   0.86914   1.000
    C13     C    0.98784   0.13255   0.50882   1.000
    C14     C    0.65343   0.49318   0.62477   1.000
    O15     O    0.06992   0.57270   0.91775   1.000
    O16     O    0.03269   0.40971   0.87384   1.000
    O17     O    0.40259   0.34389   0.42449   1.000
    O18     O    0.36951   0.46225   0.58870   1.000
    O19     O    0.73662   0.07968   0.66016   1.000
    O20     O    0.70393   0.12630   0.54206   1.000
    O21     O    0.06972   0.42662   0.08179   1.000
    O22     O    0.03285   0.58953   0.12530   1.000
    O23     O    0.40273   0.65603   0.57433   1.000
    O24     O    0.36642   0.53676   0.41099   1.000
    O25     O    0.73655   0.92052   0.34059   1.000
    O26     O    0.70394   0.87395   0.45871   1.000
    O27     O    0.26332   0.65889   0.07927   1.000
    O28     O    0.29601   0.54116   0.12630   1.000
    O29     O    0.93005   0.91846   0.57348   1.000
    O30     O    0.96708   0.87492   0.41041   1.000
    O31     O    0.59706   0.42506   0.34387   1.000
    O32     O    0.62989   0.58972   0.46131   1.000
    O33     O    0.26318   0.34006   0.92040   1.000
    O34     O    0.29597   0.45781   0.87342   1.000
    O35     O    0.92992   0.08226   0.42714   1.000
    O36     O    0.96715   0.12611   0.59029   1.000
    O37     O    0.59761   0.57572   0.65543   1.000
    O38     O    0.63035   0.41132   0.53757   1.000
loop_
    _geom_bond_atom_site_label_1
    _geom_bond_atom_site_label_2
    _geom_bond_distance
    _geom_bond_site_symmetry_2
    _ccdc_geom_bond_type
    O27    C9        1.27157      .   S
    O21    C6        1.27750      .   S
    O21    In3       2.32374  1_554   S
    O22    C6        1.27929      .   S
    O28    C9        1.28486      .   S
    O28    In3       2.30927  1_554   S
    O25    C8        1.27147      .   S
    O31    C11       1.27648      .   S
    O31    In0       2.33353      .   S
    C8     O26       1.28490      .   S
    C11    O32       1.28173      .   S
    O30    C10       1.27903      .   S
    O24    C7        1.28110      .   S
    O17    C4        1.27607      .   S
    O35    C13       1.27737      .   S
    O26    In1       2.30849  1_565   S
    C10    O29       1.27738      .   S
    C7     O23       1.27597      .   S
    In0    O23       2.33392      .   S
    In0    O18       2.33232      .   S
    In1    O20       2.30586      .   S
    In1    O29       2.32384  1_545   S
    C4     O18       1.28121      .   S
    C13    O36       1.27918      .   S
    O38    C14       1.28150      .   S
    O20    C5        1.28530      .   S
    C14    O37       1.27596      .   S
    C5     O19       1.27120      .   S
    C2     O16       1.27926      .   S
    C2     O15       1.27731      .   S
    C12    O34       1.28509      .   S
    C12    O33       1.27109      .   S
    O34    In3       2.30830      .   S
    O15    In3       2.32550      .   S
    O16    In3       2.35468      .   S
    O17    In0       2.33776      .   S
    O19    In1       2.37362      .   S
    O22    In3       2.35513  1_554   S
    O24    In0       2.34095      .   S
    O25    In1       2.37255  1_565   S
    O27    In3       2.36881  1_554   S
    O30    In1       2.35467  1_565   S
    O32    In0       2.33741      .   S
    O33    In3       2.37030      .   S
    O35    In1       2.32395      .   S
    O36    In1       2.35335      .   S
    O37    In0       2.33835      .   S
    O38    In0       2.33568      .   S
