# CIF file generated by openbabel 2.4.90, see http://openbabel.sf.net
data_I
_chemical_name_common ''
_cell_length_a 12.513
_cell_length_b 14.768
_cell_length_c 14.758
_cell_angle_alpha 120.039
_cell_angle_beta 90.035
_cell_angle_gamma 90.047
_space_group_name_H-M_alt 'P 1'
_space_group_name_Hall 'P 1'
loop_
    _symmetry_equiv_pos_as_xyz
    x,y,z
loop_
    _atom_site_label
    _atom_site_type_symbol
    _atom_site_fract_x
    _atom_site_fract_y
    _atom_site_fract_z
    _atom_site_occupancy
    C0      C    0.01195   0.49112   0.86740   1.000
    C1      C    0.34654   0.37491   0.50703   1.000
    C2      C    0.68076   0.13076   0.62904   1.000
    C3      C    0.01198   0.50826   0.13198   1.000
    C4      C    0.34525   0.62471   0.49252   1.000
    C5      C    0.68073   0.86932   0.37166   1.000
    C6      C    0.31917   0.62804   0.13066   1.000
    C7      C    0.98778   0.86832   0.49179   1.000
    C8      C    0.65305   0.50764   0.37440   1.000
    C9      C    0.31906   0.37098   0.86914   1.000
    C10     C    0.98784   0.13255   0.50882   1.000
    C11     C    0.65343   0.49318   0.62477   1.000
