# CIF file generated by openbabel 2.4.90, see http://openbabel.sf.net
data_I
_chemical_name_common ''
_cell_length_a 12.513
_cell_length_b 14.768
_cell_length_c 14.758
_cell_angle_alpha 120.039
_cell_angle_beta 90.035
_cell_angle_gamma 90.047
_space_group_name_H-M_alt 'P 1'
_space_group_name_Hall 'P 1'
loop_
    _symmetry_equiv_pos_as_xyz
    x,y,z
loop_
    _atom_site_label
    _atom_site_type_symbol
    _atom_site_fract_x
    _atom_site_fract_y
    _atom_site_fract_z
    _atom_site_occupancy
    N0      N    0.16648   0.74614   0.49156   1.000
    N1      N    0.49996   0.74798   0.25180   1.000
    N2      N    0.83280   0.50862   0.25386   1.000
    N3      N    0.49991   0.25152   0.74843   1.000
    N4      N    0.16707   0.25426   0.50866   1.000
    N5      N    0.83277   0.49141   0.74562   1.000
    Zr6     Zr   0.49954   0.50011   0.49961   1.000
    O7      O    0.63283   0.49605   0.60023   1.000
    O8      O    0.36623   0.60063   0.49573   1.000
    O9      O    0.63277   0.50422   0.39907   1.000
    O10     O    0.36666   0.39953   0.50387   1.000
    Zr11    Zr   0.83428   0.00027   0.50035   1.000
    O12     O    0.96736   0.10477   0.50455   1.000
    O13     O    0.70069   0.10358   0.60226   1.000
    O14     O    0.70070   0.89655   0.39830   1.000
    O15     O    0.96717   0.89580   0.49599   1.000
    Zr16    Zr   0.16557   0.49956   0.99977   1.000
    O17     O    0.03250   0.50404   0.10429   1.000
    O18     O    0.03247   0.49541   0.89521   1.000
    O19     O    0.29914   0.39768   0.89641   1.000
    O20     O    0.29918   0.60154   0.10339   1.000
loop_
    _geom_bond_atom_site_label_1
    _geom_bond_atom_site_label_2
    _geom_bond_distance
    _geom_bond_site_symmetry_2
    _ccdc_geom_bond_type
    Zr6    O7        2.25313      .   S
    N5     O7        3.31798      .   S
    Zr6    O8        2.25363      .   S
    N0     O8        3.31813      .   S
    Zr6    O9        2.25329      .   S
    N2     O9        3.31766      .   S
    Zr6    O10       2.25044      .   S
    N4     O10       3.31486      .   S
    Zr11   O12       2.24903      .   S
    N4     O12       3.31351  1_455   S
    Zr11   O13       2.25692      .   S
    N3     O13       3.32205      .   S
    Zr11   O14       2.25642  1_545   S
    N1     O14       3.32160      .   S
    Zr11   O15       2.24819  1_545   S
    N0     O15       3.31267  1_455   S
    Zr16   O17       2.24897  1_556   S
    N2     O17       3.31348  1_655   S
    Zr16   O18       2.24958      .   S
    N5     O18       3.31419  1_655   S
    Zr16   O19       2.25686      .   S
    N3     O19       3.32199      .   S
    Zr16   O20       2.25578  1_556   S
    N1     O20       3.32086      .   S
