# CIF file generated by openbabel 2.4.90, see http://openbabel.sf.net
data_I
_chemical_name_common ''
_cell_length_a 7.962
_cell_length_b 14.332
_cell_length_c 14.571
_cell_angle_alpha 89.469
_cell_angle_beta 85.678
_cell_angle_gamma 89.185
_space_group_name_H-M_alt 'P 1'
_space_group_name_Hall 'P 1'
loop_
    _symmetry_equiv_pos_as_xyz
    x,y,z
loop_
    _atom_site_label
    _atom_site_type_symbol
    _atom_site_fract_x
    _atom_site_fract_y
    _atom_site_fract_z
    _atom_site_occupancy
    H0      H    0.79936   0.60456   0.22027   1.000
    H1      H    0.30387   0.61014   0.22529   1.000
    H2      H    0.90891   0.71821   0.09805   1.000
    H3      H    0.41142   0.72249   0.10135   1.000
    H4      H    0.10109   0.88100   0.31178   1.000
    H5      H    0.60801   0.88754   0.31209   1.000
    H6      H    0.98819   0.75963   0.42615   1.000
    H7      H    0.49908   0.76666   0.42809   1.000
    H8      H    0.70252   0.11074   0.27429   1.000
    H9      H    0.20914   0.10298   0.27777   1.000
    H10     H    0.59336   0.22209   0.39807   1.000
    H11     H    0.09711   0.21589   0.39960   1.000
    H12     H    0.38124   0.38878   0.18820   1.000
    H13     H    0.00000   0.38046   0.18591   1.000
    H14     H    0.49222   0.26869   0.07236   1.000
    H15     H    0.00712   0.25937   0.07210   1.000
    H16     H    0.69809   0.38973   0.77531   1.000
    H17     H    0.20259   0.39542   0.78031   1.000
    H18     H    0.58870   0.27762   0.89900   1.000
    H19     H    0.09135   0.28197   0.90229   1.000
    H20     H    0.39481   0.11238   0.68758   1.000
    H21     H    0.00000   0.11895   0.68792   1.000
    H22     H    0.50564   0.23299   0.57180   1.000
    H23     H    0.01663   0.24005   0.57376   1.000
    H24     H    0.79642   0.89675   0.72204   1.000
    H25     H    0.30290   0.88904   0.72532   1.000
    H26     H    0.90995   0.78405   0.60041   1.000
    H27     H    0.41367   0.77789   0.60174   1.000
    H28     H    0.11255   0.61930   0.81466   1.000
    H29     H    0.62360   0.61108   0.81222   1.000
    H30     H    0.99616   0.74017   0.92830   1.000
    H31     H    0.51096   0.73093   0.92789   1.000
    C32     C    0.86651   0.66697   0.23780   1.000
    C33     C    0.37198   0.67259   0.24170   1.000
    C34     C    0.92756   0.72971   0.17029   1.000
    C35     C    0.43186   0.73461   0.17327   1.000
    C36     C    0.01343   0.80851   0.19612   1.000
    C37     C    0.51811   0.81374   0.19782   1.000
    C38     C    0.03324   0.82073   0.28980   1.000
    C39     C    0.54018   0.82685   0.29113   1.000
    C40     C    0.96998   0.75424   0.35296   1.000
    C41     C    0.47876   0.76076   0.35520   1.000
    C42     C    0.63055   0.17325   0.25798   1.000
    C43     C    0.13841   0.16553   0.26016   1.000
    C44     C    0.56978   0.23475   0.32637   1.000
    C45     C    0.07609   0.22788   0.32746   1.000
    C46     C    0.47875   0.31411   0.30206   1.000
    C47     C    0.00000   0.30712   0.30150   1.000
    C48     C    0.45280   0.32791   0.20900   1.000
    C49     C    0.00000   0.31989   0.20797   1.000
    C50     C    0.51535   0.26224   0.14499   1.000
    C51     C    0.02780   0.25364   0.14510   1.000
    C52     C    0.63016   0.32729   0.75869   1.000
    C53     C    0.13567   0.33299   0.76258   1.000
    C54     C    0.56922   0.26541   0.82698   1.000
    C55     C    0.07366   0.27038   0.82996   1.000
    C56     C    0.48321   0.18627   0.80220   1.000
    C57     C    0.00000   0.19156   0.80389   1.000
    C58     C    0.46241   0.17308   0.70876   1.000
    C59     C    0.00000   0.17922   0.71010   1.000
    C60     C    0.52489   0.23902   0.64481   1.000
    C61     C    0.03378   0.24557   0.64707   1.000
    C62     C    0.86701   0.83421   0.73983   1.000
    C63     C    0.37475   0.82654   0.74181   1.000
    C64     C    0.93017   0.77197   0.67263   1.000
    C65     C    0.43648   0.76517   0.67353   1.000
    C66     C    0.01978   0.69274   0.69879   1.000
    C67     C    0.52730   0.68580   0.69804   1.000
    C68     C    0.04173   0.67987   0.79242   1.000
    C69     C    0.55223   0.67195   0.79122   1.000
    C70     C    0.97638   0.74601   0.85521   1.000
    C71     C    0.48874   0.73748   0.85514   1.000
    N72     N    0.88728   0.67809   0.32810   1.000
    N73     N    0.39507   0.68448   0.33167   1.000
    N74     N    0.60375   0.18578   0.16828   1.000
    N75     N    0.11489   0.17730   0.17000   1.000
    N76     N    0.60839   0.31528   0.66857   1.000
    N77     N    0.11623   0.32173   0.67214   1.000
    N78     N    0.88946   0.82235   0.83011   1.000
    N79     N    0.40048   0.81393   0.83165   1.000
loop_
    _geom_bond_atom_site_label_1
    _geom_bond_atom_site_label_2
    _geom_bond_distance
    _geom_bond_site_symmetry_2
    _ccdc_geom_bond_type
    H15    C51       1.09066      .   S
    H14    C50       1.09073      .   S
    H2     C34       1.08838      .   S
    H3     C35       1.08846      .   S
    C50    N74       1.34855      .   S
    C50    C48       1.39161      .   S
    C51    N75       1.34856      .   S
    C51    C49       1.33027      .   S
    N74    C42       1.35011      .   S
    N75    C43       1.34953      .   S
    C34    C36       1.39757  1_655   S
    C34    C32       1.39152      .   S
    C35    C37       1.39732      .   S
    C35    C33       1.39116      .   S
    H13    C49       0.92287      .   S
    H12    C48       1.08846      .   S
    C36    C38       1.39876      .   S
    C37    C39       1.39878      .   S
    C49    C47       1.37331      .   S
    C48    C46       1.39878      .   S
    H0     C32       1.09067      .   S
    H1     C33       1.09068      .   S
    C32    N72       1.34970      .   S
    C33    N73       1.35013      .   S
    C42    H8        1.09065      .   S
    C42    C44       1.39109      .   S
    C43    H9        1.09072      .   S
    C43    C45       1.39170      .   S
    C38    H4        1.08856      .   S
    C38    C40       1.39144  1_455   S
    C39    H5        1.08848      .   S
    C39    C41       1.39133      .   S
    C47    C45       1.34424      .   S
    C46    C44       1.39723      .   S
    C44    H10       1.08842      .   S
    C45    H11       1.08844      .   S
    N72    C40       1.34882      .   S
    N73    C41       1.34858      .   S
    C40    H6        1.09074      .   S
    C41    H7        1.09064      .   S
    H22    C60       1.09061      .   S
    H23    C61       1.09069      .   S
    H26    C64       1.08842      .   S
    H27    C65       1.08839      .   S
    C60    N76       1.34872      .   S
    C60    C58       1.39140      .   S
    C61    N77       1.34899      .   S
    C61    C59       1.33186      .   S
    N76    C52       1.35027      .   S
    N77    C53       1.34982      .   S
    C64    C66       1.39768  1_655   S
    C64    C62       1.39169      .   S
    C65    C67       1.39732      .   S
    C65    C63       1.39110      .   S
    H20    C58       1.08847      .   S
    H21    C59       0.92516      .   S
    C67    C69       1.39878      .   S
    C66    C68       1.39868      .   S
    C58    C56       1.39876      .   S
    C59    C57       1.37964      .   S
    H24    C62       1.09069      .   S
    H25    C63       1.09062      .   S
    C62    N78       1.34968      .   S
    C63    N79       1.35025      .   S
    C52    H16       1.09067      .   S
    C52    C54       1.39118      .   S
    C53    H17       1.09065      .   S
    C53    C55       1.39151      .   S
    C69    H29       1.08847      .   S
    C69    C71       1.39170      .   S
    C68    H28       1.08856      .   S
    C68    C70       1.39155  1_455   S
    C56    C54       1.39743      .   S
    C57    C55       1.35083      .   S
    C54    H18       1.08845      .   S
    C55    H19       1.08836      .   S
    N78    C70       1.34876      .   S
    N79    C71       1.34871      .   S
    C71    H31       1.09070      .   S
    C70    H30       1.09062      .   S
