# CIF file generated by openbabel 2.4.90, see http://openbabel.sf.net
data_I
_chemical_name_common ''
_cell_length_a 7.962
_cell_length_b 14.332
_cell_length_c 14.571
_cell_angle_alpha 89.469
_cell_angle_beta 85.678
_cell_angle_gamma 89.185
_space_group_name_H-M_alt 'P 1'
_space_group_name_Hall 'P 1'
loop_
    _symmetry_equiv_pos_as_xyz
    x,y,z
loop_
    _atom_site_label
    _atom_site_type_symbol
    _atom_site_fract_x
    _atom_site_fract_y
    _atom_site_fract_z
    _atom_site_occupancy
    C0      C    0.59280   0.88129   0.12629   1.000
    C1      C    0.09199   0.87579   0.12548   1.000
    C2      C    0.90814   0.37471   0.37190   1.000
    C3      C    0.40356   0.38115   0.37381   1.000
    C4      C    0.90880   0.12433   0.87438   1.000
    C5      C    0.40768   0.11877   0.87356   1.000
    C6      C    0.60340   0.61888   0.62640   1.000
    C7      C    0.09870   0.62522   0.62851   1.000
