# CIF file generated by openbabel 2.4.90, see http://openbabel.sf.net
data_I
_chemical_name_common ''
_cell_length_a 7.962
_cell_length_b 14.332
_cell_length_c 14.571
_cell_angle_alpha 89.469
_cell_angle_beta 85.678
_cell_angle_gamma 89.185
_space_group_name_H-M_alt 'P 1'
_space_group_name_Hall 'P 1'
loop_
    _symmetry_equiv_pos_as_xyz
    x,y,z
loop_
    _atom_site_label
    _atom_site_type_symbol
    _atom_site_fract_x
    _atom_site_fract_y
    _atom_site_fract_z
    _atom_site_occupancy
    Zr0     Zr   0.76478   0.56947   0.43483   1.000
    Zr1     Zr   0.27013   0.57773   0.43884   1.000
    Zr2     Zr   0.72671   0.07809   0.06166   1.000
    Zr3     Zr   0.23888   0.06892   0.06305   1.000
    Zr4     Zr   0.73543   0.42150   0.56172   1.000
    Zr5     Zr   0.24096   0.42978   0.56571   1.000
    Zr6     Zr   0.76322   0.93036   0.93655   1.000
    Zr7     Zr   0.27560   0.92115   0.93798   1.000
    Zr8     Zr   0.59280   0.88129   0.12629   1.000
    Zr9     Zr   0.09199   0.87579   0.12548   1.000
    Zr10    Zr   0.90814   0.37471   0.37190   1.000
    Zr11    Zr   0.40356   0.38115   0.37381   1.000
    Zr12    Zr   0.90880   0.12433   0.87438   1.000
    Zr13    Zr   0.40768   0.11877   0.87356   1.000
    Zr14    Zr   0.60340   0.61888   0.62640   1.000
    Zr15    Zr   0.09870   0.62522   0.62851   1.000
    Zr16    Zr   0.65238   0.95554   0.15626   1.000
    Zr17    Zr   0.15619   0.94838   0.15647   1.000
    Zr18    Zr   0.59272   0.85597   0.04252   1.000
    Zr19    Zr   0.09110   0.85182   0.04147   1.000
    Zr20    Zr   0.84361   0.44868   0.34064   1.000
    Zr21    Zr   0.34101   0.45628   0.34400   1.000
    Zr22    Zr   0.91052   0.34965   0.45600   1.000
    Zr23    Zr   0.40692   0.35462   0.45749   1.000
    Zr24    Zr   0.84406   0.05196   0.84334   1.000
    Zr25    Zr   0.34794   0.04462   0.84355   1.000
    Zr26    Zr   0.90987   0.14817   0.95844   1.000
    Zr27    Zr   0.40758   0.14405   0.95737   1.000
    Zr28    Zr   0.66605   0.54380   0.65621   1.000
    Zr29    Zr   0.16337   0.55132   0.65977   1.000
    Zr30    Zr   0.60018   0.64540   0.54269   1.000
    Zr31    Zr   0.09666   0.65035   0.54439   1.000
    O32     O    0.09155   0.86380   0.08348   1.000
    O33     O    0.18335   0.88648   0.98972   1.000
    O34     O    0.59276   0.86863   0.08440   1.000
    O35     O    0.67797   0.89316   0.98953   1.000
    O36     O    0.68955   0.01681   0.10896   1.000
    O37     O    0.74497   0.00422   0.99911   1.000
    O38     O    0.81829   0.11313   0.01005   1.000
    O39     O    0.19753   0.00865   0.10976   1.000
    O40     O    0.25724   0.99504   0.00051   1.000
    O41     O    0.32323   0.10649   0.01021   1.000
    O42     O    0.12409   0.91209   0.14098   1.000
    O43     O    0.62259   0.91841   0.14127   1.000
    O44     O    0.87587   0.41169   0.35627   1.000
    O45     O    0.80419   0.50907   0.38774   1.000
    O46     O    0.37229   0.41872   0.35890   1.000
    O47     O    0.30557   0.51700   0.39142   1.000
    O48     O    0.90933   0.36218   0.41395   1.000
    O49     O    0.40524   0.36789   0.41565   1.000
    O50     O    0.68248   0.60743   0.48876   1.000
    O51     O    0.75011   0.49548   0.49828   1.000
    O52     O    0.18339   0.61404   0.49162   1.000
    O53     O    0.25555   0.50375   0.50228   1.000
    O54     O    0.82298   0.38557   0.50886   1.000
    O55     O    0.32394   0.39220   0.51160   1.000
    O56     O    0.60179   0.63214   0.58454   1.000
    O57     O    0.09768   0.63778   0.58645   1.000
    O58     O    0.70074   0.48265   0.60896   1.000
    O59     O    0.20217   0.49055   0.61274   1.000
    O60     O    0.63472   0.58134   0.64130   1.000
    O61     O    0.13104   0.58827   0.64414   1.000
    O62     O    0.87643   0.08815   0.85886   1.000
    O63     O    0.80364   0.99116   0.88995   1.000
    O64     O    0.37781   0.08170   0.85855   1.000
    O65     O    0.31177   0.98288   0.89076   1.000
    O66     O    0.40763   0.13141   0.91547   1.000
    O67     O    0.90933   0.13625   0.91641   1.000
    N68     N    0.45583   0.74799   0.26576   1.000
    O69     O    0.50564   0.79775   0.21391   1.000
    O70     O    0.39422   0.68954   0.32551   1.000
    N71     N    0.06705   0.24100   0.23476   1.000
    O72     O    0.12197   0.18206   0.17564   1.000
    O73     O    0.01056   0.29096   0.28573   1.000
    N74     N    0.54203   0.24883   0.23416   1.000
    O75     O    0.49159   0.29823   0.28605   1.000
    O76     O    0.60363   0.19038   0.17456   1.000
    N77     N    0.06699   0.25778   0.73700   1.000
    O78     O    0.01069   0.20787   0.78807   1.000
    O79     O    0.12279   0.31677   0.67796   1.000
    N80     N    0.94955   0.74216   0.26313   1.000
    O81     O    0.88779   0.68297   0.32230   1.000
    O82     O    0.00113   0.79216   0.21197   1.000
    N83     N    0.54655   0.25191   0.73437   1.000
    O84     O    0.49600   0.20221   0.78612   1.000
    O85     O    0.60923   0.31015   0.67476   1.000
    N86     N    0.46311   0.75098   0.76585   1.000
    O87     O    0.51423   0.70166   0.71404   1.000
    O88     O    0.40058   0.80926   0.82533   1.000
    N89     N    0.95396   0.75874   0.76544   1.000
    O90     O    0.00660   0.70886   0.71454   1.000
    O91     O    0.89015   0.81755   0.82439   1.000
loop_
    _geom_bond_atom_site_label_1
    _geom_bond_atom_site_label_2
    _geom_bond_distance
    _geom_bond_site_symmetry_2
    _ccdc_geom_bond_type
    Zr19   O32       0.63749      .   S
    Zr9    O32       0.63749      .   S
    Zr19   O33       1.12909  1_554   S
    Zr7    O33       1.12909      .   S
    Zr18   O34       0.63833      .   S
    Zr8    O34       0.63833      .   S
    Zr18   O35       1.12451  1_554   S
    Zr6    O35       1.12451      .   S
    Zr2    O36       1.13987      .   S
    Zr16   O36       1.13987  1_565   S
    Zr2    O37       1.40222  1_554   S
    Zr6    O37       1.40222  1_565   S
    Zr2    O38       1.12699      .   S
    Zr26   O38       1.12699  1_556   S
    Zr3    O39       1.13189      .   S
    Zr17   O39       1.13189  1_565   S
    Zr3    O40       1.40233  1_545   S
    Zr7    O40       1.40233  1_556   S
    Zr3    O41       1.12174      .   S
    Zr27   O41       1.12174  1_556   S
    Zr9    O42       0.63368      .   S
    Zr17   O42       0.63368      .   S
    Zr8    O43       0.63291      .   S
    Zr16   O43       0.63291      .   S
    Zr20   O44       0.63365      .   S
    Zr10   O44       0.63365      .   S
    Zr20   O45       1.13556      .   S
    Zr0    O45       1.13556      .   S
    Zr21   O46       0.63341      .   S
    Zr11   O46       0.63341      .   S
    Zr21   O47       1.13541      .   S
    Zr1    O47       1.13541      .   S
    Zr10   O48       0.63765      .   S
    Zr22   O48       0.63765      .   S
    Zr11   O49       0.63797      .   S
    Zr23   O49       0.63797      .   S
    Zr0    O50       1.12388      .   S
    Zr30   O50       1.12388      .   S
    Zr0    O51       1.40055      .   S
    Zr4    O51       1.40055      .   S
    Zr1    O52       1.12082      .   S
    Zr31   O52       1.12082      .   S
    Zr1    O53       1.40034      .   S
    Zr5    O53       1.40034      .   S
    Zr22   O54       1.12266      .   S
    Zr4    O54       1.12266      .   S
    Zr23   O55       1.12582      .   S
    Zr5    O55       1.12582      .   S
    Zr30   O56       0.63811      .   S
    Zr14   O56       0.63811      .   S
    Zr31   O57       0.63775      .   S
    Zr15   O57       0.63775      .   S
    Zr4    O58       1.13747      .   S
    Zr28   O58       1.13747      .   S
    Zr5    O59       1.13800      .   S
    Zr29   O59       1.13800      .   S
    Zr14   O60       0.63328      .   S
    Zr28   O60       0.63328      .   S
    Zr15   O61       0.63351      .   S
    Zr29   O61       0.63351      .   S
    Zr24   O62       0.63350      .   S
    Zr12   O62       0.63350      .   S
    Zr24   O63       1.13498  1_545   S
    Zr6    O63       1.13498      .   S
    Zr25   O64       0.63275      .   S
    Zr13   O64       0.63275      .   S
    Zr25   O65       1.14243  1_545   S
    Zr7    O65       1.14243      .   S
    Zr13   O66       0.63846      .   S
    Zr27   O66       0.63846      .   S
    Zr12   O67       0.63763      .   S
    Zr26   O67       0.63763      .   S
    N68    O69       1.09077      .   S
    Zr8    O69       1.84574      .   S
    N68    O70       1.27825      .   S
    Zr1    O70       2.45386      .   S
    N71    O72       1.26217      .   S
    Zr3    O72       2.44195      .   S
    N71    O73       1.10311      .   S
    Zr10   O73       1.87831  1_655   S
    N74    O75       1.09095      .   S
    Zr11   O75       1.84614      .   S
    N74    O76       1.27825      .   S
    Zr2    O76       2.45317      .   S
    N77    O78       1.10246      .   S
    Zr12   O78       1.87593  1_655   S
    N77    O79       1.26164      .   S
    Zr5    O79       2.43850      .   S
    N80    O81       1.28032      .   S
    Zr0    O81       2.45928      .   S
    N80    O82       1.09094  1_655   S
    Zr9    O82       1.84595      .   S
    N83    O84       1.09105      .   S
    Zr13   O84       1.84621      .   S
    N83    O85       1.27804      .   S
    Zr4    O85       2.45294      .   S
    N86    O87       1.09121      .   S
    Zr14   O87       1.84657      .   S
    N86    O88       1.27798      .   S
    Zr7    O88       2.45211      .   S
    N89    O90       1.09141  1_655   S
    Zr15   O90       1.84680      .   S
    N89    O91       1.28126      .   S
    Zr6    O91       2.46173      .   S
