# CIF file generated by openbabel 2.4.90, see http://openbabel.sf.net
data_I
_chemical_name_common ''
_cell_length_a 14.004
_cell_length_b 15.377
_cell_length_c 15.348
_cell_angle_alpha 88.196
_cell_angle_beta 85.279
_cell_angle_gamma 85.566
_space_group_name_H-M_alt 'P 1'
_space_group_name_Hall 'P 1'
loop_
    _symmetry_equiv_pos_as_xyz
    x,y,z
loop_
    _atom_site_label
    _atom_site_type_symbol
    _atom_site_fract_x
    _atom_site_fract_y
    _atom_site_fract_z
    _atom_site_occupancy
    N0      N    0.21062   0.15417   0.89397   1.000
    N1      N    0.28848   0.84604   0.61277   1.000
    N2      N    0.78939   0.84584   0.10603   1.000
    N3      N    0.71154   0.15397   0.38724   1.000
    N4      N    0.78860   0.34479   0.61317   1.000
    N5      N    0.21141   0.65522   0.38681   1.000
    Zr6     Zr   0.78887   0.84493   0.60635   1.000
    O7      O    0.79041   0.66495   0.60897   1.000
    O8      O    0.95756   0.84365   0.60693   1.000
    O9      O    0.78676   0.02489   0.60842   1.000
    O10     O    0.62011   0.84698   0.61045   1.000
    O11     O    0.79045   0.84544   0.42645   1.000
    O12     O    0.78795   0.84485   0.78602   1.000
    Zr13    Zr   0.21115   0.15508   0.39366   1.000
    O14     O    0.21206   0.15516   0.21398   1.000
    O15     O    0.20956   0.15458   0.57356   1.000
    O16     O    0.21326   0.97512   0.39158   1.000
    O17     O    0.04246   0.15636   0.39308   1.000
    O18     O    0.20961   0.33506   0.39103   1.000
    O19     O    0.37991   0.15303   0.38956   1.000
loop_
    _geom_bond_atom_site_label_1
    _geom_bond_atom_site_label_2
    _geom_bond_distance
    _geom_bond_site_symmetry_2
    _ccdc_geom_bond_type
    Zr6    O7        2.76499      .   S
    N4     O7        4.92341      .   S
    Zr6    O8        2.36158      .   S
    N1     O8        4.64547  1_455   S
    Zr6    O9        2.76636  1_565   S
    N4     O9        4.92406      .   S
    Zr6    O10       2.35678      .   S
    N1     O10       4.64252      .   S
    Zr6    O11       2.75919      .   S
    N2     O11       4.91876      .   S
    Zr6    O12       2.75658      .   S
    N2     O12       4.91370  1_554   S
    Zr13   O14       2.75656      .   S
    N0     O14       4.91376  1_556   S
    Zr13   O15       2.75919      .   S
    N0     O15       4.91872      .   S
    Zr13   O16       2.76636  1_545   S
    N5     O16       4.92408      .   S
    Zr13   O17       2.36158      .   S
    N3     O17       4.64548  1_655   S
    Zr13   O18       2.76498      .   S
    N5     O18       4.92340      .   S
    Zr13   O19       2.35677      .   S
    N3     O19       4.64251      .   S
