# CIF file generated by openbabel 2.4.90, see http://openbabel.sf.net
data_I
_chemical_name_common ''
_cell_length_a 14.004
_cell_length_b 15.377
_cell_length_c 15.348
_cell_angle_alpha 88.196
_cell_angle_beta 85.279
_cell_angle_gamma 85.566
_space_group_name_H-M_alt 'P 1'
_space_group_name_Hall 'P 1'
loop_
    _symmetry_equiv_pos_as_xyz
    x,y,z
loop_
    _atom_site_label
    _atom_site_type_symbol
    _atom_site_fract_x
    _atom_site_fract_y
    _atom_site_fract_z
    _atom_site_occupancy
    Zr0     Zr   0.89103   0.83737   0.59988   1.000
    Zr1     Zr   0.68801   0.85201   0.61468   1.000
    Zr2     Zr   0.10898   0.16264   0.40013   1.000
    Zr3     Zr   0.31200   0.14800   0.38533   1.000
    Zr4     Zr   0.78415   0.84326   0.77660   1.000
    Zr5     Zr   0.79544   0.84608   0.43585   1.000
    Zr6     Zr   0.77978   0.01638   0.60572   1.000
    Zr7     Zr   0.79593   0.67390   0.60859   1.000
    Zr8     Zr   0.21587   0.15676   0.22341   1.000
    Zr9     Zr   0.20458   0.15393   0.56416   1.000
    Zr10    Zr   0.22024   0.98363   0.39429   1.000
    Zr11    Zr   0.20409   0.32611   0.39142   1.000
    Zr12    Zr   0.69993   0.98588   0.59309   1.000
    Zr13    Zr   0.85861   0.97125   0.61482   1.000
    Zr14    Zr   0.86263   0.81916   0.73322   1.000
    Zr15    Zr   0.70477   0.86692   0.74433   1.000
    Zr16    Zr   0.71686   0.71749   0.63022   1.000
    Zr17    Zr   0.87565   0.70577   0.58467   1.000
    Zr18    Zr   0.71565   0.83792   0.48056   1.000
    Zr19    Zr   0.87575   0.85559   0.46667   1.000
    Zr20    Zr   0.30009   0.01414   0.40692   1.000
    Zr21    Zr   0.14140   0.02876   0.38519   1.000
    Zr22    Zr   0.13738   0.18084   0.26679   1.000
    Zr23    Zr   0.29525   0.13309   0.25568   1.000
    Zr24    Zr   0.28316   0.28252   0.36979   1.000
    Zr25    Zr   0.12437   0.29424   0.41530   1.000
    Zr26    Zr   0.28437   0.16209   0.51945   1.000
    Zr27    Zr   0.12427   0.14442   0.53334   1.000
    O28     O    0.25556   0.14493   0.23954   1.000
    O29     O    0.17663   0.16880   0.24510   1.000
    O30     O    0.30362   0.14054   0.32050   1.000
    O31     O    0.12318   0.17174   0.33346   1.000
    O32     O    0.29758   0.21526   0.37756   1.000
    O33     O    0.24362   0.30432   0.38060   1.000
    O34     O    0.18082   0.00619   0.38974   1.000
    O35     O    0.12519   0.09570   0.39266   1.000
    O36     O    0.30604   0.08107   0.39612   1.000
    O37     O    0.29818   0.15504   0.45239   1.000
    O38     O    0.16423   0.31018   0.40336   1.000
    O39     O    0.26016   0.99888   0.40060   1.000
    O40     O    0.11668   0.22844   0.40771   1.000
    O41     O    0.11663   0.15353   0.46673   1.000
    O42     O    0.83559   0.85084   0.45126   1.000
    O43     O    0.75554   0.84200   0.45820   1.000
    O44     O    0.88339   0.84648   0.53327   1.000
    O45     O    0.70183   0.84497   0.54762   1.000
    O46     O    0.24447   0.15801   0.54180   1.000
    O47     O    0.16442   0.14917   0.54875   1.000
    O48     O    0.88334   0.77157   0.59227   1.000
    O49     O    0.83579   0.68984   0.59663   1.000
    O50     O    0.73985   0.00113   0.59940   1.000
    O51     O    0.69397   0.91895   0.60388   1.000
    O52     O    0.87482   0.90431   0.60735   1.000
    O53     O    0.87683   0.82827   0.66655   1.000
    O54     O    0.81919   0.99382   0.61027   1.000
    O55     O    0.75639   0.69569   0.61940   1.000
    O56     O    0.70244   0.78475   0.62245   1.000
    O57     O    0.69639   0.85947   0.67950   1.000
    O58     O    0.82339   0.83121   0.75491   1.000
    O59     O    0.74446   0.85509   0.76046   1.000
    O60     O    0.78952   0.84469   0.60728   1.000
    O61     O    0.21049   0.15532   0.39273   1.000
    N62     N    0.21062   0.15417   0.89397   1.000
    O63     O    0.20798   0.15407   0.75346   1.000
    O64     O    0.21297   0.15524   0.03431   1.000
    N65     N    0.28848   0.84604   0.61277   1.000
    O66     O    0.12624   0.84237   0.60750   1.000
    O67     O    0.45135   0.84903   0.61455   1.000
    N68     N    0.78939   0.84584   0.10603   1.000
    O69     O    0.78704   0.84477   0.96570   1.000
    O70     O    0.79203   0.84594   0.24654   1.000
    N71     N    0.71154   0.15397   0.38724   1.000
    O72     O    0.87377   0.15764   0.39251   1.000
    O73     O    0.54867   0.15098   0.38546   1.000
    N74     N    0.78860   0.34479   0.61317   1.000
    O75     O    0.79195   0.48497   0.61160   1.000
    O76     O    0.78464   0.20486   0.61050   1.000
    N77     N    0.21141   0.65522   0.38681   1.000
    O78     O    0.20806   0.51504   0.38840   1.000
    O79     O    0.21537   0.79515   0.38950   1.000
loop_
    _geom_bond_atom_site_label_1
    _geom_bond_atom_site_label_2
    _geom_bond_distance
    _geom_bond_site_symmetry_2
    _ccdc_geom_bond_type
    Zr8    O28       0.63838      .   S
    Zr23   O28       0.63838      .   S
    Zr8    O29       0.63653      .   S
    Zr22   O29       0.63653      .   S
    Zr23   O30       1.02238      .   S
    Zr3    O30       1.02238      .   S
    Zr22   O31       1.03342      .   S
    Zr2    O31       1.03342      .   S
    Zr24   O32       1.04338      .   S
    Zr3    O32       1.04338      .   S
    Zr24   O33       0.63726      .   S
    Zr11   O33       0.63726      .   S
    Zr21   O34       0.63653      .   S
    Zr10   O34       0.63653  1_565   S
    Zr21   O35       1.04465      .   S
    Zr2    O35       1.04465      .   S
    Zr3    O36       1.04590      .   S
    Zr20   O36       1.04590      .   S
    Zr3    O37       1.03899      .   S
    Zr26   O37       1.03899      .   S
    Zr11   O38       0.63776      .   S
    Zr25   O38       0.63776      .   S
    Zr10   O39       0.63845      .   S
    Zr20   O39       0.63845  1_545   S
    Zr2    O40       1.03689      .   S
    Zr25   O40       1.03689      .   S
    Zr2    O41       1.04056      .   S
    Zr27   O41       1.04056      .   S
    Zr5    O42       0.63785      .   S
    Zr19   O42       0.63785      .   S
    Zr5    O43       0.63740      .   S
    Zr18   O43       0.63740      .   S
    Zr19   O44       1.04056      .   S
    Zr0    O44       1.04056      .   S
    Zr18   O45       1.03900      .   S
    Zr1    O45       1.03900      .   S
    Zr26   O46       0.63741      .   S
    Zr9    O46       0.63741      .   S
    Zr27   O47       0.63784      .   S
    Zr9    O47       0.63784      .   S
    Zr17   O48       1.03694      .   S
    Zr0    O48       1.03694      .   S
    Zr17   O49       0.63783      .   S
    Zr7    O49       0.63783      .   S
    Zr12   O50       0.63844  1_565   S
    Zr6    O50       0.63844      .   S
    Zr12   O51       1.04591      .   S
    Zr1    O51       1.04591      .   S
    Zr0    O52       1.04465      .   S
    Zr13   O52       1.04465      .   S
    Zr0    O53       1.03343      .   S
    Zr14   O53       1.03343      .   S
    Zr6    O54       0.63652  1_545   S
    Zr13   O54       0.63652      .   S
    Zr7    O55       0.63725      .   S
    Zr16   O55       0.63725      .   S
    Zr1    O56       1.04338      .   S
    Zr16   O56       1.04338      .   S
    Zr1    O57       1.02237      .   S
    Zr15   O57       1.02237      .   S
    Zr14   O58       0.63654      .   S
    Zr4    O58       0.63654      .   S
    Zr15   O59       0.63837      .   S
    Zr4    O59       0.63837      .   S
    Zr0    O60       1.41272      .   S
    Zr1    O60       1.41272      .   S
    Zr2    O61       1.41272      .   S
    Zr3    O61       1.41272      .   S
    N62    O63       2.15993      .   S
    Zr9    O63       2.90981      .   S
    N62    O64       2.15749  1_556   S
    Zr8    O64       2.90677      .   S
    N65    O66       2.28514      .   S
    Zr0    O66       3.31246  1_655   S
    N65    O67       2.28729      .   S
    Zr1    O67       3.31830      .   S
    N68    O69       2.15741  1_554   S
    Zr4    O69       2.90675      .   S
    N68    O70       2.15997      .   S
    Zr5    O70       2.90985      .   S
    N71    O72       2.28514      .   S
    Zr2    O72       3.31247  1_455   S
    N71    O73       2.28729      .   S
    Zr3    O73       3.31829      .   S
    N74    O75       2.15897      .   S
    Zr7    O75       2.90878      .   S
    N74    O76       2.15856      .   S
    Zr6    O76       2.90768      .   S
    N77    O78       2.15896      .   S
    Zr11   O78       2.90877      .   S
    N77    O79       2.15857      .   S
    Zr10   O79       2.90768      .   S
