# CIF file generated by openbabel 2.4.90, see http://openbabel.sf.net
data_I
_chemical_name_common ''
_cell_length_a 12.316
_cell_length_b 16.202
_cell_length_c 17.134
_cell_angle_alpha 89.853
_cell_angle_beta 89.941
_cell_angle_gamma 90.059
_space_group_name_H-M_alt 'P 1'
_space_group_name_Hall 'P 1'
loop_
    _symmetry_equiv_pos_as_xyz
    x,y,z
loop_
    _atom_site_label
    _atom_site_type_symbol
    _atom_site_fract_x
    _atom_site_fract_y
    _atom_site_fract_z
    _atom_site_occupancy
    Cd0     Cd   0.25789   0.77988   0.53580   1.000
    Cd1     Cd   0.75754   0.22112   0.46470   1.000
    Cd2     Cd   0.75755   0.72112   0.46469   1.000
    Cd3     Cd   0.25658   0.97015   0.03580   1.000
    Cd4     Cd   0.25657   0.47016   0.03580   1.000
    Cd5     Cd   0.75665   0.52945   0.96410   1.000
    Cd6     Cd   0.75666   0.00000   0.96410   1.000
    Hg7     Hg   0.43942   0.50179   0.36122   1.000
    Hg8     Hg   0.43943   0.00000   0.36123   1.000
    Hg9     Hg   0.93877   0.99930   0.63877   1.000
    Hg10    Hg   0.93877   0.49931   0.63877   1.000
    Hg11    Hg   0.43818   0.24920   0.86164   1.000
    Hg12    Hg   0.43819   0.74921   0.86165   1.000
    Hg13    Hg   0.93797   0.25019   0.13842   1.000
    Hg14    Hg   0.93797   0.75020   0.13842   1.000
    Cd15    Cd   0.25788   0.27988   0.53580   1.000
    S16     S    0.52009   0.14859   0.34695   1.000
    S17     S    0.52009   0.64859   0.34694   1.000
    S18     S    0.48322   0.43980   0.49879   1.000
    S19     S    0.48323   0.93980   0.49880   1.000
    S20     S    0.22638   0.51464   0.36058   1.000
    S21     S    0.22639   0.00000   0.36058   1.000
    S22     S    0.49799   0.39621   0.25639   1.000
    S23     S    0.49800   0.89622   0.25639   1.000
    S24     S    0.01927   0.35270   0.65356   1.000
    S25     S    0.01927   0.85271   0.65356   1.000
    S26     S    0.98316   0.06122   0.50118   1.000
    S27     S    0.98316   0.56123   0.50118   1.000
    S28     S    0.72573   0.98616   0.63970   1.000
    S29     S    0.72573   0.48617   0.63970   1.000
    S30     S    0.99695   0.10563   0.74308   1.000
    S31     S    0.99694   0.60564   0.74308   1.000
    S32     S    0.51859   0.10265   0.84659   1.000
    S33     S    0.51860   0.60265   0.84659   1.000
    S34     S    0.48222   0.31046   0.00000   1.000
    S35     S    0.48223   0.81047   0.00000   1.000
    S36     S    0.22510   0.23625   0.86073   1.000
    S37     S    0.22511   0.73626   0.86073   1.000
    S38     S    0.49687   0.35573   0.75706   1.000
    S39     S    0.49689   0.85573   0.75706   1.000
    S40     S    0.01812   0.39702   0.15300   1.000
    S41     S    0.01812   0.89702   0.15300   1.000
    S42     S    0.98185   0.18868   0.00101   1.000
    S43     S    0.98185   0.68869   0.00100   1.000
    S44     S    0.72486   0.26280   0.13977   1.000
    S45     S    0.72486   0.76281   0.13977   1.000
    S46     S    0.99663   0.14441   0.24351   1.000
    S47     S    0.99663   0.64441   0.24350   1.000
    Ts48    Ts   0.29933   0.76049   0.51020   1.000
    Ts49    Ts   0.23716   0.81454   0.51302   1.000
    Ts50    Ts   0.21843   0.74611   0.53968   1.000
    Ts51    Ts   0.28458   0.79100   0.57236   1.000
    Ts52    Ts   0.71829   0.25495   0.46077   1.000
    Ts53    Ts   0.79904   0.24048   0.49027   1.000
    Ts54    Ts   0.73671   0.18651   0.48756   1.000
    Ts55    Ts   0.78428   0.20993   0.42814   1.000
    Ts56    Ts   0.71830   0.75495   0.46076   1.000
    Ts57    Ts   0.79904   0.74049   0.49027   1.000
    Ts58    Ts   0.73672   0.68651   0.48756   1.000
    Ts59    Ts   0.78428   0.70994   0.42814   1.000
    Ts60    Ts   0.28351   0.95925   0.07238   1.000
    Ts61    Ts   0.29799   0.98956   0.02387   1.000
    Ts62    Ts   0.23589   0.93545   0.02387   1.000
    Ts63    Ts   0.21722   0.00392   0.03956   1.000
    Ts64    Ts   0.28349   0.45925   0.07238   1.000
    Ts65    Ts   0.29798   0.48956   0.02387   1.000
    Ts66    Ts   0.23588   0.43545   0.02387   1.000
    Ts67    Ts   0.21720   0.50393   0.03956   1.000
    Ts68    Ts   0.78340   0.54082   0.92754   1.000
    Ts69    Ts   0.71728   0.49564   0.96024   1.000
    Ts70    Ts   0.79808   0.50988   0.98963   1.000
    Ts71    Ts   0.73581   0.56388   0.98699   1.000
    Ts72    Ts   0.78341   0.02118   0.92754   1.000
    Ts73    Ts   0.71729   0.97601   0.96024   1.000
    Ts74    Ts   0.79809   0.99024   0.98963   1.000
    Ts75    Ts   0.73582   0.04425   0.98699   1.000
    Ts76    Ts   0.29932   0.26049   0.51020   1.000
    Ts77    Ts   0.23715   0.31453   0.51301   1.000
    Ts78    Ts   0.21842   0.24611   0.53968   1.000
    Ts79    Ts   0.28457   0.29100   0.57235   1.000
    Ts80    Ts   0.49298   0.16248   0.36872   1.000
    Ts81    Ts   0.49298   0.66248   0.36871   1.000
    Ts82    Ts   0.51354   0.41718   0.48966   1.000
    Ts83    Ts   0.51354   0.91718   0.48967   1.000
    Ts84    Ts   0.22088   0.48917   0.38120   1.000
    Ts85    Ts   0.22088   0.97941   0.38120   1.000
    Ts86    Ts   0.46680   0.40468   0.23504   1.000
    Ts87    Ts   0.46682   0.90469   0.23505   1.000
    Ts88    Ts   0.99229   0.33874   0.63177   1.000
    Ts89    Ts   0.99229   0.83874   0.63177   1.000
    Ts90    Ts   0.01343   0.08387   0.51037   1.000
    Ts91    Ts   0.01343   0.58388   0.51038   1.000
    Ts92    Ts   0.72023   0.01169   0.61917   1.000
    Ts93    Ts   0.72023   0.51170   0.61917   1.000
    Ts94    Ts   0.96589   0.09699   0.76452   1.000
    Ts95    Ts   0.96589   0.59700   0.76452   1.000
    Ts96    Ts   0.51250   0.33315   0.99046   1.000
    Ts97    Ts   0.51251   0.83317   0.99046   1.000
    Ts98    Ts   0.21961   0.26152   0.88142   1.000
    Ts99    Ts   0.21962   0.76153   0.88143   1.000
    Ts100   Ts   0.46603   0.34702   0.73557   1.000
    Ts101   Ts   0.46604   0.84702   0.73557   1.000
    Ts102   Ts   0.99115   0.41102   0.13118   1.000
    Ts103   Ts   0.99115   0.91103   0.13119   1.000
    Ts104   Ts   0.01218   0.16606   0.01017   1.000
    Ts105   Ts   0.01218   0.66607   0.01017   1.000
    Ts106   Ts   0.71935   0.23748   0.11912   1.000
    Ts107   Ts   0.71935   0.73748   0.11913   1.000
    Ts108   Ts   0.96579   0.15324   0.26498   1.000
    Ts109   Ts   0.96579   0.65324   0.26498   1.000
loop_
    _geom_bond_atom_site_label_1
    _geom_bond_atom_site_label_2
    _geom_bond_distance
    _geom_bond_site_symmetry_2
    _ccdc_geom_bond_type
    S35    Hg12      2.62914  1_554   S
    S34    Hg11      2.62916  1_554   S
    S43    Hg14      2.61524      .   S
    S42    Hg13      2.61523      .   S
    Hg14   S45       2.63289      .   S
    Hg14   S41       2.58740  1_655   S
    Hg14   S47       2.58668      .   S
    Hg13   S44       2.63289      .   S
    Hg13   S40       2.58742  1_655   S
    Hg13   S46       2.58666      .   S
    S22    Hg7       2.58631      .   S
    S23    Hg8       2.56701  1_565   S
    S17    Hg7       2.58755      .   S
    S16    Hg8       2.61418      .   S
    S20    Hg7       2.63229      .   S
    S21    Hg8       2.62385      .   S
    Hg7    S18       2.61679      .   S
    Hg8    S19       2.60575  1_545   S
    S26    Hg9       2.61663  1_545   S
    S27    Hg10      2.61663      .   S
    Hg9    S28       2.63233      .   S
    Hg9    S25       2.58654  1_655   S
    Hg9    S30       2.58678  1_565   S
    Hg10   S29       2.63232      .   S
    Hg10   S24       2.58679  1_655   S
    Hg10   S31       2.58679      .   S
    S38    Hg11      2.58681      .   S
    S39    Hg12      2.58682      .   S
    S32    Hg11      2.58704      .   S
    S33    Hg12      2.58704      .   S
    S36    Hg11      2.63253      .   S
    S37    Hg12      2.63251      .   S
    Cd0    Ts48      0.74313      .   S
    Cd0    Ts49      0.72952      .   S
    Cd0    Ts50      0.73425      .   S
    Cd0    Ts51      0.73057      .   S
    Cd1    Ts52      0.73418      .   S
    Cd1    Ts53      0.74321      .   S
    Cd1    Ts54      0.72948      .   S
    Cd1    Ts55      0.73059      .   S
    Cd2    Ts56      0.73418      .   S
    Cd2    Ts57      0.74322      .   S
    Cd2    Ts58      0.72948      .   S
    Cd2    Ts59      0.73058      .   S
    Cd3    Ts60      0.73068      .   S
    Cd3    Ts61      0.63238      .   S
    Cd3    Ts62      0.65061      .   S
    Cd3    Ts63      0.73432  1_565   S
    Cd4    Ts64      0.73070      .   S
    Cd4    Ts65      0.63239      .   S
    Cd4    Ts66      0.65067      .   S
    Cd4    Ts67      0.73431      .   S
    Cd5    Ts68      0.73055      .   S
    Cd5    Ts69      0.73428      .   S
    Cd5    Ts70      0.74329      .   S
    Cd5    Ts71      0.72948      .   S
    Cd6    Ts72      0.78545      .   S
    Cd6    Ts73      0.62472  1_545   S
    Cd6    Ts74      0.69069  1_545   S
    Cd6    Ts75      0.85748      .   S
    Cd15   Ts76      0.74314      .   S
    Cd15   Ts77      0.72952      .   S
    Cd15   Ts78      0.73425      .   S
    Cd15   Ts79      0.73057      .   S
    S16    Ts80      0.54909      .   S
    S17    Ts81      0.54909      .   S
    S18    Ts82      0.54649      .   S
    S19    Ts83      0.54649      .   S
    S20    Ts84      0.54666      .   S
    S21    Ts85      0.48987  1_545   S
    S22    Ts86      0.54792      .   S
    S23    Ts87      0.54792      .   S
    S24    Ts88      0.54911  1_455   S
    S25    Ts89      0.54911  1_455   S
    S26    Ts90      0.54649  1_655   S
    S27    Ts91      0.54650  1_655   S
    S28    Ts92      0.54666  1_565   S
    S29    Ts93      0.54666      .   S
    S30    Ts94      0.54790      .   S
    S31    Ts95      0.54790      .   S
    S34    Ts96      0.54794  1_554   S
    S35    Ts97      0.54794  1_554   S
    S36    Ts98      0.54664      .   S
    S37    Ts99      0.54663      .   S
    S38    Ts100     0.54791      .   S
    S39    Ts101     0.54791      .   S
    S40    Ts102     0.54910  1_455   S
    S41    Ts103     0.54911  1_455   S
    S42    Ts104     0.54649  1_655   S
    S43    Ts105     0.54649  1_655   S
    S44    Ts106     0.54664      .   S
    S45    Ts107     0.54664      .   S
    S46    Ts108     0.54791      .   S
    S47    Ts109     0.54791      .   S
