# CIF file generated by openbabel 2.4.90, see http://openbabel.sf.net
data_I
_chemical_name_common ''
_cell_length_a 12.316
_cell_length_b 16.202
_cell_length_c 17.134
_cell_angle_alpha 89.853
_cell_angle_beta 89.941
_cell_angle_gamma 90.059
_space_group_name_H-M_alt 'P 1'
_space_group_name_Hall 'P 1'
loop_
    _symmetry_equiv_pos_as_xyz
    x,y,z
loop_
    _atom_site_label
    _atom_site_type_symbol
    _atom_site_fract_x
    _atom_site_fract_y
    _atom_site_fract_z
    _atom_site_occupancy
    Zr0     Zr   0.25788   0.27988   0.53580   1.000
    Zr1     Zr   0.25789   0.77988   0.53580   1.000
    Zr2     Zr   0.75754   0.22112   0.46470   1.000
    Zr3     Zr   0.75755   0.72112   0.46469   1.000
    Zr4     Zr   0.25658   0.97015   0.03580   1.000
    Zr5     Zr   0.25657   0.47016   0.03580   1.000
    Zr6     Zr   0.75665   0.52945   0.96410   1.000
    Zr7     Zr   0.75666   0.00000   0.96410   1.000
    Zr8     Zr   0.43942   0.50179   0.36122   1.000
    Zr9     Zr   0.43943   0.00000   0.36123   1.000
    Zr10    Zr   0.93877   0.99930   0.63877   1.000
    Zr11    Zr   0.93877   0.49931   0.63877   1.000
    Zr12    Zr   0.43818   0.24920   0.86164   1.000
    Zr13    Zr   0.43819   0.74921   0.86165   1.000
    Zr14    Zr   0.93797   0.25019   0.13842   1.000
    Zr15    Zr   0.93797   0.75020   0.13842   1.000
    Zr16    Zr   0.52009   0.14859   0.34695   1.000
    Zr17    Zr   0.52009   0.64859   0.34694   1.000
    Zr18    Zr   0.48322   0.43980   0.49879   1.000
    Zr19    Zr   0.48323   0.93980   0.49880   1.000
    Zr20    Zr   0.22638   0.51464   0.36058   1.000
    Zr21    Zr   0.22639   0.00000   0.36058   1.000
    Zr22    Zr   0.49799   0.39621   0.25639   1.000
    Zr23    Zr   0.49800   0.89622   0.25639   1.000
    Zr24    Zr   0.01927   0.35270   0.65356   1.000
    Zr25    Zr   0.01927   0.85271   0.65356   1.000
    Zr26    Zr   0.98316   0.06122   0.50118   1.000
    Zr27    Zr   0.98316   0.56123   0.50118   1.000
    Zr28    Zr   0.72573   0.98616   0.63970   1.000
    Zr29    Zr   0.72573   0.48617   0.63970   1.000
    Zr30    Zr   0.99695   0.10563   0.74308   1.000
    Zr31    Zr   0.99694   0.60564   0.74308   1.000
    Zr32    Zr   0.51859   0.10265   0.84659   1.000
    Zr33    Zr   0.51860   0.60265   0.84659   1.000
    Zr34    Zr   0.48222   0.31046   0.00000   1.000
    Zr35    Zr   0.48223   0.81047   0.00000   1.000
    Zr36    Zr   0.22510   0.23625   0.86073   1.000
    Zr37    Zr   0.22511   0.73626   0.86073   1.000
    Zr38    Zr   0.49687   0.35573   0.75706   1.000
    Zr39    Zr   0.49689   0.85573   0.75706   1.000
    Zr40    Zr   0.01812   0.39702   0.15300   1.000
    Zr41    Zr   0.01812   0.89702   0.15300   1.000
    Zr42    Zr   0.98185   0.18868   0.00101   1.000
    Zr43    Zr   0.98185   0.68869   0.00100   1.000
    Zr44    Zr   0.72486   0.26280   0.13977   1.000
    Zr45    Zr   0.72486   0.76281   0.13977   1.000
    Zr46    Zr   0.99663   0.14441   0.24351   1.000
    Zr47    Zr   0.99663   0.64441   0.24350   1.000
    O48     O    0.46021   0.77984   0.93082   1.000
    O49     O    0.46020   0.27983   0.93082   1.000
    O50     O    0.95991   0.71945   0.06971   1.000
    O51     O    0.95991   0.21944   0.06971   1.000
    O52     O    0.83141   0.75650   0.13910   1.000
    O53     O    0.97804   0.82361   0.14571   1.000
    O54     O    0.96730   0.69730   0.19096   1.000
    O55     O    0.83141   0.25649   0.13910   1.000
    O56     O    0.97804   0.32360   0.14571   1.000
    O57     O    0.96730   0.19730   0.19097   1.000
    O58     O    0.46870   0.44900   0.30880   1.000
    O59     O    0.46871   0.94811   0.30881   1.000
    O60     O    0.47975   0.57519   0.35408   1.000
    O61     O    0.47976   0.07429   0.35409   1.000
    O62     O    0.33290   0.50822   0.36090   1.000
    O63     O    0.33291   0.00000   0.36091   1.000
    O64     O    0.46132   0.47080   0.43001   1.000
    O65     O    0.46133   0.96990   0.43001   1.000
    O66     O    0.96097   0.03026   0.56997   1.000
    O67     O    0.96097   0.53027   0.56997   1.000
    O68     O    0.83225   0.99273   0.63923   1.000
    O69     O    0.97902   0.92601   0.64616   1.000
    O70     O    0.96786   0.05247   0.69092   1.000
    O71     O    0.83225   0.49274   0.63924   1.000
    O72     O    0.97902   0.42601   0.64616   1.000
    O73     O    0.96786   0.55247   0.69093   1.000
    O74     O    0.46753   0.30247   0.80935   1.000
    O75     O    0.46754   0.80247   0.80935   1.000
    O76     O    0.47839   0.17593   0.85412   1.000
    O77     O    0.47839   0.67593   0.85412   1.000
    O78     O    0.33164   0.24272   0.86119   1.000
    O79     O    0.33165   0.74273   0.86119   1.000
    N80     N    0.87035   0.07163   0.83091   1.000
    O81     O    0.91036   0.08215   0.80308   1.000
    O82     O    0.83357   0.05170   0.87009   1.000
    N83     N    0.87034   0.57164   0.83092   1.000
    O84     O    0.91035   0.58216   0.80308   1.000
    O85     O    0.83356   0.55907   0.87009   1.000
    N86     N    0.40908   0.54433   0.00000   1.000
    O87     O    0.36388   0.52180   0.00895   1.000
    N88     N    0.20279   0.91105   0.44495   1.000
    O89     O    0.21046   0.94008   0.41823   1.000
    O90     O    0.21479   0.87146   0.47329   1.000
    N91     N    0.90908   0.45487   0.06413   1.000
    O92     O    0.86394   0.47748   0.03326   1.000
    O93     O    0.94337   0.43645   0.09220   1.000
    N94     N    0.10675   0.65388   0.53810   1.000
    O95     O    0.15272   0.69156   0.53986   1.000
    O96     O    0.06766   0.62454   0.52654   1.000
    N97     N    0.70124   0.65979   0.05531   1.000
    O98     O    0.70892   0.69231   0.08206   1.000
    O99     O    0.71332   0.62045   0.02688   1.000
    N100    N    0.37091   0.92953   0.16894   1.000
    O101    O    0.33394   0.94166   0.12980   1.000
    O102    O    0.41107   0.91923   0.19666   1.000
    N103    N    0.60698   0.34727   0.46215   1.000
    O104    O    0.65282   0.30956   0.46048   1.000
    O105    O    0.56784   0.37657   0.47363   1.000
    N106    N    0.60698   0.84727   0.46215   1.000
    O107    O    0.56784   0.87657   0.47363   1.000
    O108    O    0.65283   0.80957   0.46048   1.000
    N109    N    0.37089   0.42952   0.16894   1.000
    O110    O    0.41105   0.41922   0.19665   1.000
    O111    O    0.33393   0.44165   0.12980   1.000
    N112    N    0.41050   0.70598   0.43562   1.000
    O113    O    0.36527   0.72839   0.46651   1.000
    O114    O    0.44496   0.68771   0.40761   1.000
    N115    N    0.91017   0.29500   0.56481   1.000
    O116    O    0.86498   0.27258   0.53393   1.000
    O117    O    0.94448   0.31338   0.59284   1.000
    N118    N    0.91018   0.79501   0.56481   1.000
    O119    O    0.86498   0.77259   0.53393   1.000
    O120    O    0.94449   0.81338   0.59284   1.000
    N121    N    0.41050   0.20598   0.43562   1.000
    O122    O    0.36527   0.22838   0.46651   1.000
    O123    O    0.44496   0.18770   0.40761   1.000
    N124    N    0.20278   0.41104   0.44494   1.000
    O125    O    0.21478   0.37145   0.47328   1.000
    O126    O    0.21045   0.44374   0.41822   1.000
    N127    N    0.10566   0.59615   0.03779   1.000
    O128    O    0.06650   0.62546   0.02627   1.000
    O129    O    0.15159   0.55848   0.03961   1.000
    N130    N    0.87093   0.17923   0.33149   1.000
    O131    O    0.91065   0.16844   0.30360   1.000
    O132    O    0.83429   0.19178   0.37068   1.000
    N133    N    0.20158   0.83907   0.96141   1.000
    O134    O    0.20923   0.80662   0.92659   1.000
    O135    O    0.21356   0.87858   0.98966   1.000
    N136    N    0.70215   0.59002   0.55569   1.000
    O137    O    0.71423   0.62962   0.52734   1.000
    O138    O    0.70982   0.55724   0.58230   1.000
    N139    N    0.10567   0.09614   0.03779   1.000
    O140    O    0.15160   0.05848   0.03962   1.000
    O141    O    0.06651   0.12544   0.02628   1.000
    N142    N    0.87093   0.67923   0.33149   1.000
    O143    O    0.91065   0.66845   0.30360   1.000
    O144    O    0.83429   0.69179   0.37068   1.000
    N145    N    0.90908   0.95488   0.06412   1.000
    O146    O    0.94337   0.93645   0.09220   1.000
    O147    O    0.86395   0.97012   0.03326   1.000
    N148    N    0.37115   0.32141   0.66903   1.000
    O149    O    0.33453   0.30898   0.62983   1.000
    O150    O    0.41088   0.33204   0.69693   1.000
    N151    N    0.37116   0.82141   0.66903   1.000
    O152    O    0.41089   0.83204   0.69693   1.000
    O153    O    0.33455   0.80899   0.62983   1.000
    N154    N    0.70125   0.15979   0.05530   1.000
    O155    O    0.70892   0.19230   0.08205   1.000
    O156    O    0.71333   0.11308   0.02687   1.000
    N157    N    0.60581   0.90330   0.96195   1.000
    O158    O    0.65171   0.93366   0.96013   1.000
    O159    O    0.56673   0.87390   0.97382   1.000
    N160    N    0.10674   0.15387   0.53810   1.000
    O161    O    0.15272   0.19155   0.53986   1.000
    O162    O    0.06765   0.12453   0.52653   1.000
    N163    N    0.20157   0.33906   0.96141   1.000
    O164    O    0.21355   0.37858   0.98965   1.000
    O165    O    0.20922   0.30661   0.92659   1.000
    N166    N    0.60580   0.40328   0.96195   1.000
    O167    O    0.56672   0.37389   0.97382   1.000
    O168    O    0.65170   0.44101   0.96013   1.000
    N169    N    0.70215   0.09002   0.55570   1.000
    O170    O    0.71422   0.12961   0.52735   1.000
    O171    O    0.70981   0.05724   0.58230   1.000
    N172    N    0.40908   0.04432   0.00000   1.000
    O173    O    0.36389   0.02179   0.00895   1.000
loop_
    _geom_bond_atom_site_label_1
    _geom_bond_atom_site_label_2
    _geom_bond_distance
    _geom_bond_site_symmetry_2
    _ccdc_geom_bond_type
    Zr35   O48       1.31457  1_554   S
    Zr13   O48       1.31457      .   S
    Zr34   O49       1.31458  1_554   S
    Zr12   O49       1.31458      .   S
    Zr43   O50       1.30762      .   S
    Zr15   O50       1.30762      .   S
    Zr42   O51       1.30761      .   S
    Zr14   O51       1.30761      .   S
    Zr15   O52       1.31645      .   S
    Zr45   O52       1.31645      .   S
    Zr15   O53       1.29370      .   S
    Zr41   O53       1.29370  1_455   S
    Zr15   O54       1.29334      .   S
    Zr47   O54       1.29334      .   S
    Zr14   O55       1.31645      .   S
    Zr44   O55       1.31645      .   S
    Zr14   O56       1.29371      .   S
    Zr40   O56       1.29371  1_455   S
    Zr14   O57       1.29333      .   S
    Zr46   O57       1.29333      .   S
    Zr22   O58       1.29315      .   S
    Zr8    O58       1.29315      .   S
    Zr23   O59       1.28350      .   S
    Zr9    O59       1.28350  1_545   S
    Zr17   O60       1.29378      .   S
    Zr8    O60       1.29378      .   S
    Zr16   O61       1.30709      .   S
    Zr9    O61       1.30709      .   S
    Zr20   O62       1.31614      .   S
    Zr8    O62       1.31614      .   S
    Zr21   O63       1.31192      .   S
    Zr9    O63       1.31192      .   S
    Zr8    O64       1.30839      .   S
    Zr18   O64       1.30839      .   S
    Zr9    O65       1.30287  1_545   S
    Zr19   O65       1.30287      .   S
    Zr26   O66       1.30832      .   S
    Zr10   O66       1.30832  1_565   S
    Zr27   O67       1.30831      .   S
    Zr11   O67       1.30831      .   S
    Zr10   O68       1.31617      .   S
    Zr28   O68       1.31617      .   S
    Zr10   O69       1.29327      .   S
    Zr25   O69       1.29327  1_455   S
    Zr10   O70       1.29339  1_565   S
    Zr30   O70       1.29339      .   S
    Zr11   O71       1.31616      .   S
    Zr29   O71       1.31616      .   S
    Zr11   O72       1.29340      .   S
    Zr24   O72       1.29340  1_455   S
    Zr11   O73       1.29340      .   S
    Zr31   O73       1.29340      .   S
    Zr38   O74       1.29340      .   S
    Zr12   O74       1.29340      .   S
    Zr39   O75       1.29341      .   S
    Zr13   O75       1.29341      .   S
    Zr32   O76       1.29352      .   S
    Zr12   O76       1.29352      .   S
    Zr33   O77       1.29352      .   S
    Zr13   O77       1.29352      .   S
    Zr36   O78       1.31626      .   S
    Zr12   O78       1.31626      .   S
    Zr37   O79       1.31625      .   S
    Zr13   O79       1.31625      .   S
    N80    O81       0.70587      .   S
    Zr30   O81       1.52767      .   S
    N80    O82       0.87059      .   S
    Zr7    O82       2.04494      .   S
    N83    O84       0.70587      .   S
    Zr31   O84       1.52767      .   S
    N83    O85       0.83406      .   S
    Zr6    O85       1.92719      .   S
    N86    O87       0.68245      .   S
    Zr5    O87       1.62879      .   S
    N88    O89       0.66222      .   S
    Zr21   O89       1.39671  1_545   S
    N88    O90       0.81719      .   S
    Zr1    O90       1.90391      .   S
    N91    O92       0.85023      .   S
    Zr6    O92       1.96464  1_556   S
    N91    O93       0.70629      .   S
    Zr40   O93       1.52991  1_455   S
    N94    O95       0.83280      .   S
    Zr1    O95       1.93025      .   S
    N94    O96       0.70510      .   S
    Zr27   O96       1.52483  1_655   S
    N97    O98       0.70548      .   S
    Zr45   O98       1.52542      .   S
    N97    O99       0.81701      .   S
    Zr6    O99       1.90363  1_556   S
    N100   O101      0.83412      .   S
    Zr4    O101      1.92745      .   S
    N100   O102      0.70588      .   S
    Zr23   O102      1.52771      .   S
    N103   O104      0.83281      .   S
    Zr2    O104      1.93017      .   S
    N103   O105      0.70509      .   S
    Zr18   O105      1.52481      .   S
    N106   O107      0.70509      .   S
    Zr19   O107      1.52481      .   S
    N106   O108      0.83281      .   S
    Zr3    O108      1.93017      .   S
    N109   O110      0.70587      .   S
    Zr22   O110      1.52770      .   S
    N109   O111      0.83414      .   S
    Zr5    O111      1.92750      .   S
    N112   O113      0.85022      .   S
    Zr1    O113      1.96442      .   S
    N112   O114      0.70628      .   S
    Zr17   O114      1.52989      .   S
    N115   O116      0.85019      .   S
    Zr2    O116      1.96448      .   S
    N115   O117      0.70630      .   S
    Zr24   O117      1.52994  1_455   S
    N118   O119      0.85019      .   S
    Zr3    O119      1.96449      .   S
    N118   O120      0.70630      .   S
    Zr25   O120      1.52994  1_455   S
    N121   O122      0.85021      .   S
    Zr0    O122      1.96442      .   S
    N121   O123      0.70628      .   S
    Zr16   O123      1.52989      .   S
    N124   O125      0.81719      .   S
    Zr0    O125      1.90391      .   S
    N124   O126      0.70549      .   S
    Zr20   O126      1.52546      .   S
    N127   O128      0.70508      .   S
    Zr43   O128      1.52480  1_655   S
    N127   O129      0.83311      .   S
    Zr5    O129      1.93074      .   S
    N130   O131      0.70586      .   S
    Zr46   O131      1.52769      .   S
    N130   O132      0.83439      .   S
    Zr2    O132      1.92768      .   S
    N133   O134      0.80169      .   S
    Zr37   O134      1.61802      .   S
    N133   O135      0.81698      .   S
    Zr4    O135      1.76419  1_554   S
    N136   O137      0.81708      .   S
    Zr3    O137      1.90372      .   S
    N136   O138      0.70550      .   S
    Zr29   O138      1.52546      .   S
    N139   O140      0.83311      .   S
    Zr4    O140      1.93074  1_565   S
    N139   O141      0.70508      .   S
    Zr42   O141      1.52480  1_655   S
    N142   O143      0.70586      .   S
    Zr47   O143      1.52769      .   S
    N142   O144      0.83439      .   S
    Zr3    O144      1.92767      .   S
    N145   O146      0.70629      .   S
    Zr41   O146      1.52993  1_455   S
    N145   O147      0.80616      .   S
    Zr7    O147      1.84017  1_546   S
    N148   O149      0.83435      .   S
    Zr0    O149      1.92761      .   S
    N148   O150      0.70587      .   S
    Zr38   O150      1.52769      .   S
    N151   O152      0.70587      .   S
    Zr39   O152      1.52769      .   S
    N151   O153      0.83436      .   S
    Zr1    O153      1.92761      .   S
    N154   O155      0.70548      .   S
    Zr44   O155      1.52542      .   S
    N154   O156      0.91331      .   S
    Zr7    O156      2.19299  1_556   S
    N157   O158      0.74956      .   S
    Zr7    O158      1.68176  1_545   S
    N157   O159      0.70615      .   S
    Zr35   O159      1.52804  1_554   S
    N160   O161      0.83281      .   S
    Zr0    O161      1.93026      .   S
    N160   O162      0.70510      .   S
    Zr26   O162      1.52483  1_655   S
    N163   O164      0.81703      .   S
    Zr5    O164      1.76433  1_554   S
    N163   O165      0.80171      .   S
    Zr36   O165      1.61804      .   S
    N166   O167      0.70615      .   S
    Zr34   O167      1.52804  1_554   S
    N166   O168      0.83267      .   S
    Zr6    O168      1.93011      .   S
    N169   O170      0.81708      .   S
    Zr2    O170      1.90371      .   S
    N169   O171      0.70549      .   S
    Zr28   O171      1.52546  1_565   S
    N172   O173      0.68243      .   S
    Zr4    O173      1.62876  1_565   S
