# CIF file generated by openbabel 2.4.90, see http://openbabel.sf.net
data_I
_chemical_name_common ''
_cell_length_a 13.215
_cell_length_b 17.408
_cell_length_c 17.409
_cell_angle_alpha 81.734
_cell_angle_beta 67.678
_cell_angle_gamma 67.69
_space_group_name_H-M_alt 'P 1'
_space_group_name_Hall 'P 1'
loop_
    _symmetry_equiv_pos_as_xyz
    x,y,z
loop_
    _atom_site_label
    _atom_site_type_symbol
    _atom_site_fract_x
    _atom_site_fract_y
    _atom_site_fract_z
    _atom_site_occupancy
    Zr0     Zr   0.36256   0.24984   0.77479   1.000
    Zr1     Zr   0.88730   0.25008   0.72528   1.000
    Zr2     Zr   0.63736   0.22527   0.75014   1.000
    Zr3     Zr   0.11274   0.27477   0.74989   1.000
    Zr4     Zr   0.63743   0.75017   0.22520   1.000
    Zr5     Zr   0.11266   0.74990   0.27476   1.000
    Zr6     Zr   0.36259   0.77475   0.24988   1.000
    Zr7     Zr   0.88722   0.72520   0.25016   1.000
    Zr8     Zr   0.49995   0.32941   0.67066   1.000
    Zr9     Zr   0.99999   0.17064   0.82942   1.000
    Zr10    Zr   0.67047   0.32955   0.82952   1.000
    Zr11    Zr   0.32951   0.17051   0.67040   1.000
    Zr12    Zr   0.50002   0.67059   0.32934   1.000
    Zr13    Zr   0.99997   0.82936   0.17063   1.000
    Zr14    Zr   0.32947   0.67048   0.17052   1.000
    Zr15    Zr   0.67046   0.82947   0.32955   1.000
    O16     O    0.22107   0.71019   0.22264   1.000
    O17     O    0.05632   0.78963   0.22270   1.000
    O18     O    0.43130   0.72267   0.28961   1.000
    O19     O    0.77884   0.77733   0.28986   1.000
    O20     O    0.22113   0.22264   0.71015   1.000
    O21     O    0.56866   0.27734   0.71040   1.000
    O22     O    0.94364   0.21036   0.77735   1.000
    O23     O    0.65391   0.27741   0.78983   1.000
    N24     N    0.99996   0.00001   0.50002   1.000
    O25     O    0.85646   0.09495   0.60365   1.000
    O26     O    0.94500   0.10362   0.59493   1.000
    O27     O    0.14348   0.90507   0.39638   1.000
    O28     O    0.05494   0.89638   0.40510   1.000
    N29     N    1.00000   0.50000   0.99999   1.000
    O30     O    0.05499   0.40509   0.89637   1.000
    O31     O    0.14349   0.39635   0.90508   1.000
    O32     O    0.94500   0.59491   0.10362   1.000
    O33     O    0.85650   0.60364   0.09492   1.000
    N34     N    0.99998   0.49999   0.50002   1.000
    O35     O    0.96004   0.39643   0.59495   1.000
    O36     O    0.03997   0.40509   0.60356   1.000
    O37     O    0.03991   0.60355   0.40510   1.000
    O38     O    0.95999   0.59489   0.39648   1.000
    N39     N    0.49999   0.00001   0.99998   1.000
    O40     O    0.45135   0.10354   0.90509   1.000
    O41     O    0.54857   0.09493   0.89628   1.000
    O42     O    0.54863   0.89647   0.09487   1.000
    O43     O    0.45139   0.90509   0.10354   1.000
loop_
    _geom_bond_atom_site_label_1
    _geom_bond_atom_site_label_2
    _geom_bond_distance
    _geom_bond_site_symmetry_2
    _ccdc_geom_bond_type
    Zr14   O16       1.33962      .   S
    Zr5    O16       1.33962      .   S
    Zr13   O17       1.34003  1_655   S
    Zr5    O17       1.34003      .   S
    Zr6    O18       1.34039      .   S
    Zr12   O18       1.34039      .   S
    Zr7    O19       1.33946      .   S
    Zr15   O19       1.33946      .   S
    Zr11   O20       1.33970      .   S
    Zr3    O20       1.33970      .   S
    Zr8    O21       1.34039      .   S
    Zr2    O21       1.34039      .   S
    Zr1    O22       1.34007      .   S
    Zr9    O22       1.34007      .   S
    Zr2    O23       1.33977      .   S
    Zr10   O23       1.33977      .   S
    N24    O25       2.33702      .   S
    Zr2    O25       3.33187      .   S
    N24    O26       2.33697      .   S
    Zr1    O26       3.33243      .   S
    N24    O27       2.33702  1_645   S
    Zr6    O27       3.33195      .   S
    N24    O28       2.33723  1_645   S
    Zr5    O28       3.33232      .   S
    N29    O30       2.33698  1_655   S
    Zr3    O30       3.33191      .   S
    N29    O31       2.33683  1_655   S
    Zr0    O31       3.33166      .   S
    N29    O32       2.33725  1_556   S
    Zr7    O32       3.33228      .   S
    N29    O33       2.33698  1_556   S
    Zr4    O33       3.33186      .   S
    N34    O35       2.33718      .   S
    Zr1    O35       3.33224      .   S
    N34    O36       2.33720  1_655   S
    Zr3    O36       3.33208      .   S
    N34    O37       2.33721  1_655   S
    Zr5    O37       3.33227      .   S
    N34    O38       2.33714      .   S
    Zr7    O38       3.33194      .   S
    N39    O40       2.33695      .   S
    Zr0    O40       3.33175      .   S
    N39    O41       2.33869      .   S
    Zr2    O41       3.33034      .   S
    N39    O42       2.33692  1_546   S
    Zr4    O42       3.33217      .   S
    N39    O43       2.33722  1_546   S
    Zr6    O43       3.33223      .   S
