# CIF file generated by openbabel 2.4.90, see http://openbabel.sf.net
data_I
_chemical_name_common ''
_cell_length_a 13.215
_cell_length_b 17.408
_cell_length_c 17.409
_cell_angle_alpha 81.734
_cell_angle_beta 67.678
_cell_angle_gamma 67.69
_space_group_name_H-M_alt 'P 1'
_space_group_name_Hall 'P 1'
loop_
    _symmetry_equiv_pos_as_xyz
    x,y,z
loop_
    _atom_site_label
    _atom_site_type_symbol
    _atom_site_fract_x
    _atom_site_fract_y
    _atom_site_fract_z
    _atom_site_occupancy
    N0      N    0.99996   0.00001   0.50002   1.000
    N1      N    1.00000   0.50000   0.99999   1.000
    N2      N    0.99998   0.49999   0.50002   1.000
    N3      N    0.49999   0.00001   0.99998   1.000
    Zr4     Zr   0.36256   0.24984   0.77479   1.000
    O5      O    0.25302   0.32310   0.83993   1.000
    O6      O    0.40696   0.17669   0.83994   1.000
    Zr7     Zr   0.94364   0.21036   0.77735   1.000
    O8      O    0.95184   0.30340   0.68615   1.000
    O9      O    0.94432   0.15699   0.68614   1.000
    Zr10    Zr   0.60259   0.29475   0.75011   1.000
    O11     O    0.57558   0.19484   0.82319   1.000
    O12     O    0.72953   0.19485   0.67688   1.000
    Zr13    Zr   0.22113   0.22264   0.71015   1.000
    O14     O    0.13806   0.31387   0.80326   1.000
    O15     O    0.13055   0.31386   0.65685   1.000
    Zr16    Zr   0.63743   0.75017   0.22520   1.000
    O17     O    0.74696   0.67691   0.16006   1.000
    O18     O    0.59303   0.82332   0.16003   1.000
    Zr19    Zr   0.14737   0.74991   0.20530   1.000
    O20     O    0.09364   0.67673   0.30520   1.000
    O21     O    0.10116   0.82315   0.30520   1.000
    Zr22    Zr   0.43130   0.72267   0.28961   1.000
    O23     O    0.44135   0.81388   0.19658   1.000
    O24     O    0.28739   0.81387   0.34299   1.000
    Zr25    Zr   0.77884   0.77733   0.28986   1.000
    O26     O    0.86192   0.68612   0.19674   1.000
    O27     O    0.86942   0.68611   0.34317   1.000
loop_
    _geom_bond_atom_site_label_1
    _geom_bond_atom_site_label_2
    _geom_bond_distance
    _geom_bond_site_symmetry_2
    _ccdc_geom_bond_type
    Zr4    O5        1.66583      .   S
    N1     O5        3.99998  1_655   S
    Zr4    O6        1.66587      .   S
    N3     O6        4.00015      .   S
    Zr7    O8        2.10212      .   S
    N2     O8        4.41755      .   S
    Zr7    O9        1.94726      .   S
    N0     O9        4.20929      .   S
    Zr10   O11       2.06423      .   S
    N3     O11       4.38280      .   S
    Zr10   O12       2.06434      .   S
    N0     O12       4.38151      .   S
    Zr13   O14       2.10222      .   S
    N1     O14       4.41739  1_655   S
    Zr13   O15       1.94729      .   S
    N2     O15       4.20957  1_655   S
    Zr16   O17       1.66593      .   S
    N1     O17       4.00022  1_556   S
    Zr16   O18       1.66609      .   S
    N3     O18       4.00033  1_546   S
    Zr19   O20       2.06479      .   S
    N2     O20       4.38216  1_655   S
    Zr19   O21       2.06451      .   S
    N0     O21       4.38189  1_645   S
    Zr22   O23       2.10216      .   S
    N3     O23       4.41762  1_546   S
    Zr22   O24       1.94688      .   S
    N0     O24       4.20883  1_645   S
    Zr25   O26       2.10211      .   S
    N1     O26       4.41754  1_556   S
    Zr25   O27       1.94748      .   S
    N2     O27       4.20972      .   S
