# CIF file generated by openbabel 2.4.90, see http://openbabel.sf.net
data_I
_chemical_name_common ''
_cell_length_a 10.412
_cell_length_b 18.782
_cell_length_c 27.669
_cell_angle_alpha 90.002
_cell_angle_beta 89.095
_cell_angle_gamma 89.994
_space_group_name_H-M_alt 'P 1'
_space_group_name_Hall 'P 1'
loop_
    _symmetry_equiv_pos_as_xyz
    x,y,z
loop_
    _atom_site_label
    _atom_site_type_symbol
    _atom_site_fract_x
    _atom_site_fract_y
    _atom_site_fract_z
    _atom_site_occupancy
    La0     La   0.92354   0.89716   0.52308   1.000
    La1     La   0.07640   0.39719   0.97708   1.000
    La2     La   0.57638   0.39718   0.97708   1.000
    La3     La   0.07637   0.10280   0.47703   1.000
    La4     La   0.57636   0.10281   0.47703   1.000
    La5     La   0.42352   0.60283   0.02305   1.000
    La6     La   0.92352   0.60284   0.02305   1.000
    H7      H    0.35661   0.67539   0.51664   1.000
    H8      H    0.85663   0.67540   0.51660   1.000
    H9      H    0.24168   0.51660   0.41374   1.000
    H10     H    0.74168   0.51661   0.41372   1.000
    H11     H    0.06717   0.59757   0.38564   1.000
    H12     H    0.56715   0.59758   0.38563   1.000
    H13     H    0.03647   0.71583   0.42401   1.000
    H14     H    0.53645   0.71583   0.42401   1.000
    H15     H    0.99579   0.82949   0.66444   1.000
    H16     H    0.49577   0.82949   0.66443   1.000
    H17     H    0.12304   0.89027   0.80602   1.000
    H18     H    0.62304   0.89025   0.80601   1.000
    H19     H    0.29469   0.96524   0.76843   1.000
    H20     H    0.79471   0.96522   0.76842   1.000
    H21     H    0.32199   0.96770   0.67860   1.000
    H22     H    0.82201   0.96768   0.67861   1.000
    H23     H    0.29942   0.66708   0.88956   1.000
    H24     H    0.79943   0.66708   0.88956   1.000
    H25     H    0.08517   0.65567   0.75000   1.000
    H26     H    0.58517   0.65569   0.75800   1.000
    H27     H    0.43732   0.56670   0.79638   1.000
    H28     H    0.93731   0.56669   0.79637   1.000
    H29     H    0.47141   0.52872   0.88154   1.000
    H30     H    0.97140   0.52872   0.88154   1.000
    H31     H    0.14321   0.17544   0.98332   1.000
    La32    La   0.42354   0.89716   0.52308   1.000
    H33     H    0.64325   0.17542   0.98335   1.000
    H34     H    0.25787   0.01657   0.08620   1.000
    H35     H    0.75795   0.01661   0.08629   1.000
    H36     H    0.43245   0.09746   0.11436   1.000
    H37     H    0.93250   0.09753   0.11441   1.000
    H38     H    0.46331   0.21571   0.07600   1.000
    H39     H    0.96333   0.21576   0.07603   1.000
    H40     H    0.50402   0.32953   0.83566   1.000
    H41     H    0.00000   0.32952   0.83566   1.000
    H42     H    0.37657   0.39038   0.69412   1.000
    H43     H    0.87657   0.39038   0.69412   1.000
    H44     H    0.20491   0.46532   0.73170   1.000
    H45     H    0.70491   0.46531   0.73177   1.000
    H46     H    0.17773   0.46774   0.82159   1.000
    H47     H    0.67773   0.46773   0.82159   1.000
    H48     H    0.20034   0.16713   0.61052   1.000
    H49     H    0.70034   0.16714   0.61052   1.000
    H50     H    0.41453   0.15576   0.74210   1.000
    H51     H    0.91451   0.15577   0.74210   1.000
    H52     H    0.06241   0.06676   0.70375   1.000
    H53     H    0.56242   0.06676   0.70375   1.000
    H54     H    0.02836   0.02876   0.61850   1.000
    H55     H    0.52836   0.02876   0.61858   1.000
    H56     H    0.14321   0.32456   0.48330   1.000
    H57     H    0.64319   0.32456   0.48336   1.000
    H58     H    0.25790   0.48338   0.58627   1.000
    H59     H    0.75791   0.48337   0.58628   1.000
    H60     H    0.43244   0.40245   0.61440   1.000
    H61     H    0.93246   0.40244   0.61440   1.000
    H62     H    0.46330   0.28421   0.57602   1.000
    H63     H    0.96332   0.28420   0.57601   1.000
    H64     H    0.50400   0.17046   0.33562   1.000
    H65     H    0.00000   0.17046   0.33563   1.000
    H66     H    0.37667   0.10963   0.19406   1.000
    H67     H    0.87667   0.10963   0.19407   1.000
    H68     H    0.20504   0.03467   0.23169   1.000
    H69     H    0.70503   0.03468   0.23169   1.000
    H70     H    0.17779   0.03224   0.32150   1.000
    H71     H    0.67779   0.03224   0.32150   1.000
    H72     H    0.20041   0.33287   0.11054   1.000
    H73     H    0.70042   0.33286   0.11053   1.000
    H74     H    0.41455   0.34421   0.24213   1.000
    H75     H    0.91455   0.34420   0.24213   1.000
    H76     H    0.06244   0.43321   0.20379   1.000
    H77     H    0.56244   0.43321   0.20379   1.000
    H78     H    0.02839   0.47123   0.11863   1.000
    H79     H    0.52839   0.47122   0.11863   1.000
    H80     H    0.35664   0.82459   0.01665   1.000
    H81     H    0.85660   0.82460   0.01661   1.000
    H82     H    0.24174   0.98342   0.91376   1.000
    H83     H    0.74166   0.98337   0.91369   1.000
    H84     H    0.06720   0.90248   0.88566   1.000
    H85     H    0.56714   0.90241   0.88561   1.000
    H86     H    0.03647   0.78423   0.92402   1.000
    H87     H    0.53645   0.78417   0.92399   1.000
    H88     H    0.99579   0.67050   0.16441   1.000
    H89     H    0.49578   0.67051   0.16440   1.000
    H90     H    0.12313   0.60969   0.30597   1.000
    H91     H    0.62313   0.60971   0.30597   1.000
    H92     H    0.29481   0.53474   0.26835   1.000
    H93     H    0.79482   0.53475   0.26835   1.000
    H94     H    0.32207   0.53230   0.17854   1.000
    H95     H    0.82207   0.53231   0.17854   1.000
    H96     H    0.29947   0.83289   0.38956   1.000
    H97     H    0.79948   0.83289   0.38957   1.000
    H98     H    0.08517   0.84432   0.25801   1.000
    H99     H    0.58518   0.84431   0.25802   1.000
    C100    C    0.96480   0.06758   0.63566   1.000
    C101    C    0.32165   0.22523   0.50400   1.000
    C102    C    0.82164   0.22522   0.50460   1.000
    C103    C    0.30478   0.29700   0.52739   1.000
    H104    H    0.43733   0.93330   0.29640   1.000
    H105    H    0.93731   0.93331   0.29640   1.000
    H106    H    0.47143   0.97127   0.38157   1.000
    H107    H    0.97142   0.97127   0.38150   1.000
    C108    C    0.17825   0.77477   0.49542   1.000
    C109    C    0.67825   0.77477   0.49541   1.000
    C110    C    0.19503   0.70299   0.47262   1.000
    C111    C    0.69503   0.70300   0.47261   1.000
    C112    C    0.29327   0.65800   0.48808   1.000
    C113    C    0.79327   0.65800   0.48808   1.000
    C114    C    0.30973   0.59041   0.46734   1.000
    C115    C    0.80973   0.59042   0.46733   1.000
    C116    C    0.22848   0.56910   0.42977   1.000
    C117    C    0.72845   0.56910   0.42977   1.000
    C118    C    0.13148   0.61434   0.41417   1.000
    C119    C    0.63148   0.61436   0.41416   1.000
    C120    C    0.11347   0.68088   0.43566   1.000
    C121    C    0.61346   0.68089   0.43565   1.000
    C122    C    0.41068   0.54232   0.48478   1.000
    C123    C    0.91067   0.54233   0.48477   1.000
    C124    C    0.17513   0.90298   0.61208   1.000
    C125    C    0.67512   0.90298   0.61207   1.000
    C126    C    0.16044   0.89907   0.66611   1.000
    C127    C    0.66043   0.89907   0.66610   1.000
    C128    C    0.06216   0.85835   0.68724   1.000
    C129    C    0.56215   0.85834   0.68723   1.000
    C130    C    0.04960   0.85406   0.73776   1.000
    C131    C    0.54958   0.85406   0.73776   1.000
    C132    C    0.22852   0.93092   0.92979   1.000
    C133    C    0.72844   0.93088   0.92974   1.000
    C134    C    0.13151   0.88569   0.91419   1.000
    C135    C    0.63148   0.88563   0.91413   1.000
    C136    C    0.11349   0.81915   0.93567   1.000
    C137    C    0.13345   0.89347   0.76600   1.000
    C138    C    0.63345   0.89345   0.76689   1.000
    C139    C    0.22966   0.93507   0.74569   1.000
    C140    C    0.72967   0.93505   0.74569   1.000
    C141    C    0.24500   0.93693   0.69551   1.000
    C142    C    0.74501   0.93692   0.69551   1.000
    C143    C    0.44975   0.80885   0.76017   1.000
    C144    C    0.94976   0.80885   0.76018   1.000
    C145    C    0.28500   0.72240   0.79979   1.000
    C146    C    0.78501   0.72239   0.79980   1.000
    C147    C    0.16797   0.56666   0.93974   1.000
    C148    C    0.66796   0.56666   0.93974   1.000
    C149    C    0.13884   0.59447   0.89046   1.000
    C150    C    0.63884   0.59447   0.89047   1.000
    C151    C    0.21948   0.64570   0.86930   1.000
    C152    C    0.71950   0.64569   0.86930   1.000
    C153    C    0.19917   0.66884   0.82188   1.000
    C154    C    0.69916   0.66885   0.82189   1.000
    C155    C    0.09826   0.63897   0.79530   1.000
    C156    C    0.59828   0.63897   0.79531   1.000
    C157    C    0.01628   0.58915   0.81681   1.000
    C158    C    0.51627   0.58916   0.81681   1.000
    C159    C    0.03495   0.56754   0.86440   1.000
    C160    C    0.53496   0.56754   0.86447   1.000
    C161    C    0.32165   0.27474   0.00460   1.000
    C162    C    0.82165   0.27475   0.00460   1.000
    C163    C    0.30478   0.20296   0.02737   1.000
    C164    C    0.80480   0.20298   0.02740   1.000
    C165    C    0.20650   0.15801   0.01180   1.000
    C166    C    0.70655   0.15801   0.01192   1.000
    C167    C    0.18996   0.09042   0.03262   1.000
    C168    C    0.69003   0.09044   0.03267   1.000
    C169    C    0.27117   0.06906   0.07019   1.000
    C170    C    0.77124   0.06910   0.07020   1.000
    C171    C    0.36818   0.11427   0.08582   1.000
    C172    C    0.86821   0.11433   0.08587   1.000
    C173    C    0.38628   0.18080   0.06434   1.000
    C174    C    0.88630   0.18085   0.06438   1.000
    C175    C    0.08897   0.04237   0.01518   1.000
    C176    C    0.58908   0.04236   0.01522   1.000
    C177    C    0.32489   0.40304   0.88809   1.000
    C178    C    0.82488   0.40303   0.88800   1.000
    C179    C    0.33935   0.39911   0.83405   1.000
    C180    C    0.83934   0.39910   0.83405   1.000
    C181    C    0.43760   0.35840   0.81288   1.000
    C182    C    0.93760   0.35839   0.81289   1.000
    C183    C    0.45010   0.35413   0.76230   1.000
    C184    C    0.95011   0.35413   0.76236   1.000
    C185    C    0.36620   0.39355   0.73325   1.000
    C186    C    0.86621   0.39355   0.73325   1.000
    C187    C    0.26998   0.43513   0.75449   1.000
    C188    C    0.76998   0.43512   0.75449   1.000
    C189    C    0.25471   0.43698   0.80467   1.000
    C190    C    0.75471   0.43697   0.80467   1.000
    C191    C    0.04994   0.30893   0.73992   1.000
    C192    C    0.54993   0.30893   0.73992   1.000
    C193    C    0.21470   0.22247   0.70029   1.000
    C194    C    0.71469   0.22248   0.70029   1.000
    C195    C    0.33188   0.06667   0.56039   1.000
    C196    C    0.83188   0.06668   0.56039   1.000
    C197    C    0.36093   0.09451   0.60960   1.000
    C198    C    0.86093   0.09451   0.60965   1.000
    C199    C    0.28027   0.14575   0.63079   1.000
    C200    C    0.78026   0.14576   0.63079   1.000
    C201    C    0.30057   0.16892   0.67821   1.000
    C202    C    0.80056   0.16893   0.67820   1.000
    C203    C    0.40146   0.13905   0.70480   1.000
    C204    C    0.90144   0.13905   0.70479   1.000
    C205    C    0.48347   0.08922   0.68331   1.000
    C206    C    0.98346   0.08922   0.68331   1.000
    C207    C    0.46482   0.06758   0.63566   1.000
    C208    C    0.80477   0.29699   0.52700   1.000
    C209    C    0.20652   0.34197   0.51190   1.000
    C210    C    0.70652   0.34197   0.51191   1.000
    C211    C    0.18998   0.40955   0.53265   1.000
    C212    C    0.68998   0.40955   0.53266   1.000
    C213    C    0.27119   0.43089   0.57023   1.000
    C214    C    0.77121   0.43089   0.57023   1.000
    C215    C    0.36818   0.38566   0.58585   1.000
    C216    C    0.86818   0.38565   0.58586   1.000
    C217    C    0.38627   0.31913   0.56436   1.000
    C218    C    0.88628   0.31912   0.56437   1.000
    C219    C    0.08900   0.45762   0.51521   1.000
    C220    C    0.58900   0.45762   0.51520   1.000
    C221    C    0.32483   0.09695   0.38803   1.000
    C222    C    0.82483   0.09695   0.38804   1.000
    C223    C    0.33935   0.10087   0.33399   1.000
    C224    C    0.83935   0.10088   0.33400   1.000
    C225    C    0.43762   0.14159   0.31284   1.000
    C226    C    0.93761   0.14159   0.31284   1.000
    C227    C    0.45015   0.14586   0.26231   1.000
    C228    C    0.95015   0.14586   0.26232   1.000
    C229    C    0.36629   0.10644   0.23319   1.000
    C230    C    0.86629   0.10644   0.23320   1.000
    C231    C    0.27007   0.06486   0.25441   1.000
    C232    C    0.77006   0.06487   0.25442   1.000
    C233    C    0.25477   0.06301   0.30459   1.000
    C234    C    0.75476   0.06301   0.30460   1.000
    C235    C    0.04998   0.19106   0.23990   1.000
    C236    C    0.54998   0.19106   0.23989   1.000
    C237    C    0.21475   0.27752   0.20030   1.000
    C238    C    0.71476   0.27751   0.20029   1.000
    C239    C    0.33190   0.43333   0.06044   1.000
    C240    C    0.83191   0.43333   0.06043   1.000
    C241    C    0.36098   0.40548   0.10969   1.000
    C242    C    0.86098   0.40549   0.10969   1.000
    C243    C    0.28033   0.35423   0.13082   1.000
    C244    C    0.78033   0.35424   0.13081   1.000
    C245    C    0.30062   0.33107   0.17823   1.000
    C246    C    0.80063   0.33106   0.17822   1.000
    C247    C    0.40151   0.36092   0.20482   1.000
    C248    C    0.90149   0.36093   0.20482   1.000
    C249    C    0.48350   0.41076   0.18335   1.000
    C250    C    0.98349   0.41076   0.18334   1.000
    C251    C    0.46486   0.43240   0.13500   1.000
    C252    C    0.96485   0.43241   0.13569   1.000
    C253    C    0.17825   0.72524   0.99541   1.000
    C254    C    0.67824   0.72523   0.99539   1.000
    C255    C    0.19504   0.79702   0.97263   1.000
    C256    C    0.69503   0.79700   0.97259   1.000
    C257    C    0.29331   0.84199   0.98809   1.000
    C258    C    0.79327   0.84199   0.98805   1.000
    C259    C    0.30977   0.90958   0.96735   1.000
    C260    C    0.80971   0.90957   0.96730   1.000
    C261    C    0.61346   0.81911   0.93563   1.000
    C262    C    0.41075   0.95765   0.98479   1.000
    C263    C    0.91065   0.95766   0.98470   1.000
    C264    C    0.17506   0.59701   0.11202   1.000
    C265    C    0.67506   0.59702   0.11202   1.000
    C266    C    0.16046   0.60092   0.16605   1.000
    C267    C    0.66046   0.60093   0.16605   1.000
    C268    C    0.06219   0.64165   0.18720   1.000
    C269    C    0.56217   0.64165   0.18720   1.000
    C270    C    0.04963   0.64591   0.23773   1.000
    C271    C    0.54963   0.64593   0.23772   1.000
    C272    C    0.13353   0.60651   0.26684   1.000
    C273    C    0.63352   0.60652   0.26684   1.000
    C274    C    0.22975   0.56491   0.24562   1.000
    C275    C    0.72976   0.56493   0.24560   1.000
    C276    C    0.24507   0.56306   0.19540   1.000
    C277    C    0.74507   0.56307   0.19545   1.000
    C278    C    0.44979   0.69113   0.26015   1.000
    C279    C    0.94979   0.69112   0.26015   1.000
    C280    C    0.28504   0.77759   0.29979   1.000
    C281    C    0.78505   0.77758   0.29979   1.000
    C282    C    0.16799   0.93331   0.43976   1.000
    C283    C    0.66799   0.93331   0.43970   1.000
    C284    C    0.13888   0.90552   0.39048   1.000
    C285    C    0.63887   0.90552   0.39049   1.000
    C286    C    0.21952   0.85429   0.36931   1.000
    C287    C    0.71953   0.85429   0.36931   1.000
    C288    C    0.19919   0.83115   0.32189   1.000
    C289    C    0.69920   0.83114   0.32190   1.000
    C290    C    0.09828   0.86102   0.29532   1.000
    C291    C    0.59829   0.86102   0.29532   1.000
    C292    C    0.01630   0.91085   0.31683   1.000
    C293    C    0.51629   0.91084   0.31680   1.000
    C294    C    0.03498   0.93246   0.36449   1.000
    C295    C    0.53498   0.93245   0.36449   1.000
    N296    N    0.43045   0.48037   0.46062   1.000
    N297    N    0.93037   0.48035   0.46063   1.000
    N298    N    0.47831   0.56278   0.52390   1.000
    N299    N    0.97831   0.56279   0.52389   1.000
    N300    N    0.37106   0.77187   0.73066   1.000
    N301    N    0.87109   0.77185   0.73066   1.000
    N302    N    0.28664   0.72802   0.75090   1.000
    N303    N    0.78665   0.72802   0.75092   1.000
    N304    N    0.35391   0.76474   0.82937   1.000
    N305    N    0.85394   0.76473   0.82938   1.000
    N306    N    0.43778   0.80911   0.80903   1.000
    N307    N    0.93780   0.80910   0.80904   1.000
    N308    N    0.06923   0.98040   0.03933   1.000
    N309    N    0.56939   0.98037   0.03930   1.000
    N310    N    0.02128   0.06285   0.97607   1.000
    N311    N    0.52146   0.06281   0.97609   1.000
    N312    N    0.12869   0.27196   0.76943   1.000
    N313    N    0.62867   0.27197   0.76943   1.000
    N314    N    0.21313   0.22813   0.74917   1.000
    N315    N    0.71310   0.22812   0.74916   1.000
    N316    N    0.14572   0.26479   0.67072   1.000
    N317    N    0.64569   0.26479   0.67071   1.000
    N318    N    0.06187   0.30917   0.69100   1.000
    N319    N    0.56183   0.30917   0.69106   1.000
    N320    N    0.06928   0.51959   0.53930   1.000
    N321    N    0.56934   0.51961   0.53934   1.000
    N322    N    0.02133   0.43715   0.47610   1.000
    N323    N    0.52133   0.43715   0.47611   1.000
    N324    N    0.12871   0.22801   0.26942   1.000
    N325    N    0.62871   0.22800   0.26941   1.000
    N326    N    0.21315   0.27185   0.24917   1.000
    N327    N    0.71310   0.27187   0.24910   1.000
    N328    N    0.14582   0.23520   0.17071   1.000
    N329    N    0.64585   0.23518   0.17070   1.000
    N330    N    0.06195   0.19082   0.19104   1.000
    N331    N    0.56190   0.19084   0.19103   1.000
    N332    N    0.43046   0.01963   0.96064   1.000
    N333    N    0.93030   0.01966   0.96062   1.000
    N334    N    0.47849   0.93716   0.02388   1.000
    N335    N    0.97829   0.93720   0.02387   1.000
    N336    N    0.37105   0.72810   0.23060   1.000
    N337    N    0.87109   0.72812   0.23065   1.000
    N338    N    0.28663   0.77195   0.25091   1.000
    N339    N    0.78666   0.77196   0.25092   1.000
    N340    N    0.35395   0.73523   0.32936   1.000
    N341    N    0.85401   0.73525   0.32936   1.000
    N342    N    0.43784   0.69086   0.30901   1.000
    N343    N    0.93786   0.69087   0.30901   1.000
    O344    O    0.27254   0.80019   0.51878   1.000
    O345    O    0.77254   0.80019   0.51878   1.000
    O346    O    0.07147   0.80688   0.48975   1.000
    O347    O    0.57147   0.80688   0.48970   1.000
    O348    O    0.28447   0.91991   0.59456   1.000
    O349    O    0.78446   0.91991   0.59455   1.000
    O350    O    0.07608   0.89034   0.58708   1.000
    O351    O    0.57606   0.89034   0.58707   1.000
    O352    O    0.27963   0.57498   0.95560   1.000
    O353    O    0.77962   0.57497   0.95561   1.000
    O354    O    0.07738   0.53390   0.96378   1.000
    O355    O    0.57738   0.53389   0.96378   1.000
    O356    O    0.22742   0.30021   0.98122   1.000
    O357    O    0.72742   0.30020   0.98122   1.000
    O358    O    0.42844   0.30682   0.01028   1.000
    O359    O    0.92845   0.30683   0.01028   1.000
    O360    O    0.21569   0.42007   0.90571   1.000
    O361    O    0.71567   0.42004   0.90570   1.000
    O362    O    0.42408   0.39035   0.91301   1.000
    O363    O    0.92408   0.39035   0.91301   1.000
    O364    O    0.22024   0.07499   0.54450   1.000
    O365    O    0.72024   0.07499   0.54449   1.000
    O366    O    0.42254   0.03388   0.53641   1.000
    O367    O    0.92254   0.03388   0.53641   1.000
    O368    O    0.22740   0.19978   0.48120   1.000
    O369    O    0.72740   0.19978   0.48121   1.000
    O370    O    0.42846   0.19315   0.51026   1.000
    O371    O    0.92845   0.19315   0.51026   1.000
    O372    O    0.21561   0.07993   0.40563   1.000
    O373    O    0.71562   0.07993   0.40564   1.000
    O374    O    0.42399   0.10963   0.41297   1.000
    O375    O    0.92399   0.10963   0.41297   1.000
    O376    O    0.22025   0.42502   0.04455   1.000
    O377    O    0.72026   0.42502   0.04454   1.000
    O378    O    0.42255   0.46611   0.03645   1.000
    O379    O    0.92255   0.46613   0.03645   1.000
    O380    O    0.27253   0.69981   0.01878   1.000
    O381    O    0.77252   0.69981   0.01878   1.000
    O382    O    0.07148   0.69314   0.98973   1.000
    O383    O    0.57147   0.69313   0.98970   1.000
    O384    O    0.28436   0.58007   0.09440   1.000
    O385    O    0.78436   0.58008   0.09445   1.000
    O386    O    0.07595   0.60966   0.08706   1.000
    O387    O    0.57593   0.60966   0.08706   1.000
    O388    O    0.27965   0.92499   0.45563   1.000
    O389    O    0.77965   0.92499   0.45564   1.000
    O390    O    0.07740   0.96608   0.46381   1.000
    O391    O    0.57739   0.96608   0.46381   1.000
loop_
    _geom_bond_atom_site_label_1
    _geom_bond_atom_site_label_2
    _geom_bond_distance
    _geom_bond_site_symmetry_2
    _ccdc_geom_bond_type
    C162   O359      1.27660      .   S
    C162   C164      1.49753      .   S
    C162   O357      1.27655  1_554   S
    C161   O358      1.27656      .   S
    C161   C163      1.49742      .   S
    C161   O356      1.27668  1_554   S
    O358   La2       2.46027  1_554   S
    O359   La1       2.46031  1_654   S
    C165   C163      1.39982      .   S
    C165   C167      1.40347      .   S
    C165   H31       1.08573  1_554   S
    C166   C164      1.39903      .   S
    C166   C168      1.40250      .   S
    C166   H33       1.08750  1_554   S
    C175   C167      1.47291      .   S
    C175   N308      1.35619  1_545   S
    C175   N310      1.35638  1_554   S
    C176   C168      1.47292      .   S
    C176   N309      1.35553  1_545   S
    C176   N311      1.35625  1_554   S
    H81    C258      1.08739  1_554   S
    H80    C257      1.08743  1_554   S
    O380   La5       2.41005      .   S
    O380   C253      1.27668  1_554   S
    O381   La6       2.41004      .   S
    O381   C254      1.27682  1_554   S
    La5    O378      2.59444      .   S
    La5    O387      2.40006      .   S
    La5    O384      2.46772      .   S
    La5    O352      2.46773  1_554   S
    La5    O383      2.46098  1_554   S
    La6    O379      2.59440      .   S
    La6    O386      2.40014  1_655   S
    La6    O385      2.46881      .   S
    La6    O353      2.46765  1_554   S
    La6    O382      2.46082  1_654   S
    N335   N308      1.32320  1_655   S
    N335   C263      1.35735  1_554   S
    N334   N309      1.32264      .   S
    N334   C262      1.35630  1_554   S
    C163   C173      1.40247      .   S
    C164   C174      1.40260      .   S
    C167   C169      1.40863      .   S
    C168   C170      1.40771      .   S
    O379   C240      1.30028      .   S
    O378   C239      1.30036      .   S
    O377   C240      1.25905      .   S
    O377   La2       2.46779  1_554   S
    O376   C239      1.25907      .   S
    O376   La1       2.46781  1_554   S
    C240   C242      1.49531      .   S
    C239   C241      1.49508      .   S
    C173   H38       1.08876      .   S
    C173   C171      1.39532      .   S
    C174   H39       1.08877      .   S
    C174   C172      1.39525      .   S
    C169   C171      1.39358      .   S
    C169   H34       1.08879      .   S
    C170   C172      1.39396      .   S
    C170   H35       1.08954      .   S
    C171   H36       1.08985      .   S
    C172   H37       1.08985      .   S
    O387   C265      1.27317      .   S
    O386   C264      1.27314      .   S
    O384   C264      1.27137      .   S
    O385   C265      1.27086      .   S
    C242   C244      1.39924      .   S
    C242   C252      1.40266      .   S
    C241   C243      1.39936      .   S
    C241   C251      1.39276      .   S
    H73    C244      1.08771      .   S
    H72    C243      1.08777      .   S
    C265   C267      1.50206      .   S
    C264   C266      1.50206      .   S
    H79    C251      1.07942      .   S
    H78    C252      1.08749  1_455   S
    C244   C246      1.40131      .   S
    C243   C245      1.40124      .   S
    C251   C249      1.41448      .   S
    C252   C250      1.39619      .   S
    H89    C269      1.08781      .   S
    H88    C268      1.08765  1_655   S
    C266   C268      1.39837      .   S
    C266   C276      1.40133      .   S
    C267   C269      1.39840      .   S
    C267   C277      1.40211      .   S
    N329   N331      1.32606      .   S
    N329   C238      1.35492      .   S
    N328   N330      1.32603      .   S
    N328   C237      1.35493      .   S
    C246   C238      1.47205      .   S
    C246   C248      1.40846      .   S
    C245   C237      1.47206      .   S
    C245   C247      1.40838      .   S
    H95    C277      1.08787      .   S
    H94    C276      1.08729      .   S
    C250   H76       1.09017  1_655   S
    C250   C248      1.39371      .   S
    C249   H77       1.08993      .   S
    C249   C247      1.39361      .   S
    C268   C270      1.40444      .   S
    C269   C271      1.40417      .   S
    N331   C236      1.35565      .   S
    N330   C235      1.35568      .   S
    H66    C229      1.08802      .   S
    H67    C230      1.08802      .   S
    C276   C274      1.39658      .   S
    C277   C275      1.39466      .   S
    C238   N327      1.35451      .   S
    C237   N326      1.35621      .   S
    C248   H75       1.08962      .   S
    C247   H74       1.08954      .   S
    N336   N338      1.32324      .   S
    N336   C278      1.35793      .   S
    N337   N339      1.32278      .   S
    N337   C279      1.35705      .   S
    H69    C232      1.09043      .   S
    H68    C231      1.09027      .   S
    C229   C231      1.39283      .   S
    C229   C227      1.40780      .   S
    C230   C232      1.39284      .   S
    C230   C228      1.40780      .   S
    C271   C278      1.47171      .   S
    C271   C273      1.40785      .   S
    C270   C279      1.47169  1_455   S
    C270   C272      1.40772      .   S
    C236   C227      1.47164      .   S
    C236   N325      1.35715      .   S
    C235   C228      1.47172  1_455   S
    C235   N324      1.35714      .   S
    C275   C273      1.39313      .   S
    C275   H93       1.09073      .   S
    C274   C272      1.39289      .   S
    C274   H92       1.09041      .   S
    N327   N325      1.32343      .   S
    N326   N324      1.32270      .   S
    N338   C280      1.35643      .   S
    N339   C281      1.35614      .   S
    C231   C233      1.39548      .   S
    C232   C234      1.39547      .   S
    H98    C290      1.08956      .   S
    H99    C291      1.08935      .   S
    C278   N342      1.35567      .   S
    C279   N343      1.35565      .   S
    C227   C225      1.40443      .   S
    C228   C226      1.40416      .   S
    C272   H90       1.08802      .   S
    C273   H91       1.08802      .   S
    C290   C292      1.39366      .   S
    C290   C288      1.40844      .   S
    C291   C293      1.39333      .   S
    C291   C289      1.40856      .   S
    H104   C293      1.08960      .   S
    H105   C292      1.09017  1_655   S
    C280   C288      1.47214      .   S
    C280   N340      1.35491      .   S
    C281   C289      1.47222      .   S
    C281   N341      1.35490      .   S
    C233   H70       1.08791      .   S
    C233   C223      1.40210      .   S
    C234   H71       1.08779      .   S
    C234   C224      1.40209      .   S
    N342   N340      1.32606      .   S
    N343   N341      1.32605      .   S
    C225   C223      1.39831      .   S
    C225   H64       1.08762      .   S
    C226   C224      1.39843      .   S
    C226   H65       1.06140  1_655   S
    C293   C295      1.39712      .   S
    C292   C294      1.39629      .   S
    C288   C286      1.40143      .   S
    C289   C287      1.40121      .   S
    C223   C221      1.50229      .   S
    C224   C222      1.50229      .   S
    C294   H107      1.08677  1_455   S
    C294   C284      1.40280      .   S
    C295   H106      1.08751      .   S
    C295   C285      1.40291      .   S
    C286   H96       1.08767      .   S
    C286   C284      1.39941      .   S
    C287   H97       1.08779      .   S
    C287   C285      1.39952      .   S
    H12    C119      1.08985      .   S
    H11    C118      1.08969      .   S
    C221   O372      1.27089      .   S
    C221   O374      1.27330      .   S
    C222   O373      1.27087      .   S
    C222   O375      1.27316      .   S
    C284   C282      1.49555      .   S
    C285   C283      1.49377      .   S
    O372   La3       2.46953      .   S
    O373   La4       2.46942      .   S
    O375   La3       2.40090  1_655   S
    O374   La4       2.40080      .   S
    H10    C117      1.08912      .   S
    H9     C116      1.08902      .   S
    C119   C117      1.39361      .   S
    C119   C121      1.39527      .   S
    C118   C116      1.39360      .   S
    C118   C120      1.39536      .   S
    H14    C121      1.08877      .   S
    H13    C120      1.08881      .   S
    C117   C115      1.40866      .   S
    C116   C114      1.40867      .   S
    C121   C111      1.40252      .   S
    C120   C110      1.40241      .   S
    C283   O389      1.25968      .   S
    C283   O391      1.30139      .   S
    C282   O388      1.25897      .   S
    C282   O390      1.30052      .   S
    O388   La32      2.46759      .   S
    O389   La0       2.46743      .   S
    N296   N323      1.32324      .   S
    N296   C122      1.35594      .   S
    N297   N322      1.32336  1_655   S
    N297   C123      1.35597      .   S
    O391   La4       2.59382  1_565   S
    O390   La3       2.59380  1_565   S
    C115   C123      1.47286      .   S
    C115   C113      1.40251      .   S
    C114   C122      1.47289      .   S
    C114   C112      1.40246      .   S
    C111   C113      1.39906      .   S
    C111   C109      1.49737      .   S
    C110   C112      1.39899      .   S
    C110   C108      1.49740      .   S
    N322   C219      1.35628      .   S
    N323   C220      1.35582      .   S
    La3    O368      2.41037      .   S
    La3    O371      2.45997  1_455   S
    La3    O364      2.46780      .   S
    La4    O369      2.41041      .   S
    La4    O370      2.45983      .   S
    La4    O365      2.46769      .   S
    O368   C101      1.26845      .   S
    O369   C102      1.27675      .   S
    H56    C209      1.08820      .   S
    H57    C210      1.08731      .   S
    C123   N299      1.35622      .   S
    C122   N298      1.35620      .   S
    C113   H8        1.08678      .   S
    C112   H7        1.08743      .   S
    O347   C109      1.27679      .   S
    O347   La32      2.46065      .   S
    O346   C108      1.27660      .   S
    O346   La0       2.46019  1_455   S
    C109   O345      1.27666      .   S
    C108   O344      1.27662      .   S
    C101   O370      1.27893      .   S
    C101   C103      1.50441      .   S
    C102   O371      1.27658      .   S
    C102   C208      1.49283      .   S
    C209   C103      1.39912      .   S
    C209   C211      1.40252      .   S
    C210   C208      1.39562      .   S
    C210   C212      1.40252      .   S
    C220   C212      1.47308      .   S
    C220   N321      1.35613      .   S
    C219   C211      1.47287      .   S
    C219   N320      1.35520      .   S
    O344   La32      2.41032      .   S
    O345   La0       2.41033      .   S
    La0    O367      2.59423  1_565   S
    La0    O350      2.40070  1_655   S
    La0    O349      2.46973      .   S
    La32   O366      2.59429  1_565   S
    La32   O351      2.40040      .   S
    La32   O348      2.46986      .   S
    N299   N320      1.32280  1_655   S
    N298   N321      1.32320      .   S
    C208   C218      1.41066      .   S
    C103   C217      1.40235      .   S
    C211   C213      1.40873      .   S
    C212   C214      1.40866      .   S
    O367   C196      1.30032      .   S
    O366   C195      1.30026      .   S
    O365   C196      1.25905      .   S
    O364   C195      1.25898      .   S
    C196   C198      1.49516      .   S
    C195   C197      1.49391      .   S
    C217   H62       1.08882      .   S
    C217   C215      1.39531      .   S
    C218   H63       1.08871      .   S
    C218   C216      1.39526      .   S
    C213   C215      1.39354      .   S
    C213   H58       1.08904      .   S
    C214   C216      1.39358      .   S
    C214   H59       1.08905      .   S
    C215   H60       1.08990      .   S
    C216   H61       1.08979      .   S
    O351   C125      1.27323      .   S
    O350   C124      1.27321      .   S
    O349   C125      1.27079      .   S
    O348   C124      1.27082      .   S
    C197   C199      1.39993      .   S
    C197   C207      1.40363      .   S
    C198   C200      1.39936      .   S
    C198   C100      1.40287      .   S
    H48    C199      1.08770      .   S
    H49    C200      1.08764      .   S
    C125   C127      1.50215      .   S
    C124   C126      1.50215      .   S
    H54    C100      1.08861  1_455   S
    H55    C207      1.08757      .   S
    C199   C201      1.40149      .   S
    C200   C202      1.40130      .   S
    C100   C206      1.39616      .   S
    C207   C205      1.39612      .   S
    H16    C129      1.08767      .   S
    H15    C128      1.08769  1_655   S
    C127   C129      1.39833      .   S
    C127   C142      1.40209      .   S
    C126   C128      1.39831      .   S
    C126   C141      1.40194      .   S
    N317   N319      1.32610      .   S
    N317   C194      1.35498      .   S
    N316   N318      1.32528      .   S
    N316   C193      1.35482      .   S
    C202   C194      1.47212      .   S
    C202   C204      1.40842      .   S
    C201   C193      1.47202      .   S
    C201   C203      1.40848      .   S
    H21    C141      1.08798      .   S
    H22    C142      1.08785      .   S
    C205   H53       1.09000      .   S
    C205   C203      1.39371      .   S
    C206   H52       1.09008  1_655   S
    C206   C204      1.39360      .   S
    C129   C131      1.40448      .   S
    C128   C130      1.40420      .   S
    N318   C191      1.35730      .   S
    N319   C192      1.35563      .   S
    H42    C185      1.08798      .   S
    H43    C186      1.08798      .   S
    C141   C139      1.39552      .   S
    C142   C140      1.39552      .   S
    C194   N315      1.35616      .   S
    C193   N314      1.35646      .   S
    C204   H51       1.08963      .   S
    C203   H50       1.08931      .   S
    N301   N303      1.32276      .   S
    N301   C144      1.35725      .   S
    N300   N302      1.32256      .   S
    N300   C143      1.35708      .   S
    H44    C187      1.09159      .   S
    H45    C188      1.09046      .   S
    C186   C188      1.39291      .   S
    C186   C184      1.40787      .   S
    C185   C187      1.39290      .   S
    C185   C183      1.40694      .   S
    C130   C144      1.47179  1_455   S
    C130   C137      1.39361      .   S
    C131   C143      1.47159      .   S
    C131   C138      1.40780      .   S
    C192   C183      1.47102      .   S
    C192   N313      1.35720      .   S
    C191   C184      1.47179  1_455   S
    C191   N312      1.35720      .   S
    C140   C138      1.39282      .   S
    C140   H20       1.09025      .   S
    C139   C137      1.38290      .   S
    C139   H19       1.09039      .   S
    N315   N313      1.32275      .   S
    N314   N312      1.32263      .   S
    H25    C155      1.30131      .   S
    N302   C145      1.35670      .   S
    N303   C146      1.35642      .   S
    C187   C189      1.39543      .   S
    C188   C190      1.39544      .   S
    H26    C156      1.08966      .   S
    C143   N306      1.35569      .   S
    C144   N307      1.35568      .   S
    C183   C181      1.40577      .   S
    C184   C182      1.40439      .   S
    C137   H17       1.11252      .   S
    C138   H18       1.08778      .   S
    C155   C157      1.39376      .   S
    C155   C153      1.40849      .   S
    C156   C158      1.39363      .   S
    C156   C154      1.40840      .   S
    H28    C157      1.09024  1_655   S
    H27    C158      1.08995      .   S
    C145   C153      1.47212      .   S
    C145   N304      1.35491      .   S
    C146   C154      1.47209      .   S
    C146   N305      1.35491      .   S
    C190   H47       1.08787      .   S
    C190   C180      1.40200      .   S
    C189   H46       1.08787      .   S
    C189   C179      1.40200      .   S
    N306   N304      1.32604      .   S
    N307   N305      1.32602      .   S
    C181   C179      1.39836      .   S
    C181   H40       1.08775      .   S
    C182   C180      1.39827      .   S
    C182   H41       1.06105  1_655   S
    C157   C159      1.39448      .   S
    C158   C160      1.39640      .   S
    C153   C151      1.40142      .   S
    C154   C152      1.40129      .   S
    C179   C177      1.50223      .   S
    C180   C178      1.49976      .   S
    C159   H30       1.08835  1_455   S
    C159   C149      1.40375      .   S
    C160   H29       1.08746      .   S
    C160   C150      1.40283      .   S
    C152   H24       1.08770      .   S
    C152   C150      1.39949      .   S
    C151   H23       1.08775      .   S
    C151   C149      1.39938      .   S
    H85    C135      1.08965      .   S
    H84    C134      1.08980      .   S
    C178   O361      1.27169      .   S
    C178   O363      1.27467      .   S
    C177   O360      1.27087      .   S
    C177   O362      1.27329      .   S
    C149   C147      1.49566      .   S
    C150   C148      1.49537      .   S
    O361   La2       2.46944      .   S
    O360   La1       2.46926      .   S
    O363   La1       2.40068  1_655   S
    O362   La2       2.40059      .   S
    H83    C133      1.08910      .   S
    H82    C132      1.08905      .   S
    C135   C133      1.39362      .   S
    C135   C261      1.39531      .   S
    C134   C132      1.39355      .   S
    C134   C136      1.39532      .   S
    H87    C261      1.08878      .   S
    H86    C136      1.08878      .   S
    C133   C260      1.40859      .   S
    C132   C259      1.40860      .   S
    C261   C256      1.40245      .   S
    C136   C255      1.40251      .   S
    C148   O353      1.25900      .   S
    C148   O355      1.30046      .   S
    C147   O352      1.25889      .   S
    C147   O354      1.30039      .   S
    N333   N310      1.32330  1_655   S
    N333   C263      1.35560  1_545   S
    N332   N311      1.32326      .   S
    N332   C262      1.35632  1_545   S
    O355   La2       2.59388      .   S
    O354   La1       2.59390      .   S
    C260   C263      1.47249      .   S
    C260   C258      1.40249      .   S
    C259   C262      1.47297      .   S
    C259   C257      1.40256      .   S
    C256   C258      1.39903      .   S
    C256   C254      1.49740      .   S
    C255   C257      1.39901      .   S
    C255   C253      1.49738      .   S
    La2    O357      2.41014      .   S
    La1    O356      2.41013      .   S
    O383   C254      1.27666      .   S
    O382   C253      1.27657      .   S
    O354   La6       2.61706  1_456   S
    O355   La5       2.61704  1_556   S
    O366   La4       2.61870      .   S
    O367   La3       2.61879  1_655   S
    O378   La2       2.61853  1_554   S
    O379   La1       2.61862  1_654   S
    O390   La0       2.61708  1_455   S
    O391   La32      2.61704      .   S
