# CIF file generated by openbabel 2.4.90, see http://openbabel.sf.net
data_I
_chemical_name_common 'ZnH10C17N3O4'
_cell_length_a 14.017
_cell_length_b 15.199
_cell_length_c 15.249
_cell_angle_alpha 85.04
_cell_angle_beta 87.603
_cell_angle_gamma 83.928
_space_group_name_H-M_alt 'P 1'
_space_group_name_Hall 'P 1'
loop_
    _symmetry_equiv_pos_as_xyz
    x,y,z
loop_
    _atom_site_label
    _atom_site_type_symbol
    _atom_site_fract_x
    _atom_site_fract_y
    _atom_site_fract_z
    _atom_site_occupancy
    Zn0     Zn   0.10917   0.90032   0.15991   1.000
    Zn1     Zn   0.31284   0.88119   0.15500   1.000
    Zn2     Zn   0.89089   0.09964   0.84009   1.000
    Zn3     Zn   0.68721   0.11877   0.84499   1.000
    H4      H    0.79231   0.86865   0.01897   1.000
    H5      H    0.76985   0.90666   0.29746   1.000
    H6      H    0.64543   0.92851   0.01833   1.000
    H7      H    0.06300   0.87125   0.89100   1.000
    H8      H    0.05806   0.86192   0.72934   1.000
    H9      H    0.36352   0.90285   0.85774   1.000
    H10     H    0.96636   0.88390   0.02461   1.000
    H11     H    0.94681   0.91293   0.29236   1.000
    H12     H    0.35455   0.84096   0.44327   1.000
    H13     H    0.05467   0.93379   0.43877   1.000
    H14     H    0.36779   0.60273   0.11826   1.000
    H15     H    0.05507   0.93361   0.60289   1.000
    H16     H    0.36776   0.43766   0.11608   1.000
    H17     H    0.06325   0.20247   0.12506   1.000
    H18     H    0.36478   0.30945   0.20060   1.000
    H19     H    0.35860   0.14586   0.19473   1.000
    H20     H    0.46906   0.91737   0.02192   1.000
    H21     H    0.07200   0.61394   0.20603   1.000
    H22     H    0.64194   0.83649   0.29528   1.000
    H23     H    0.46457   0.83681   0.28794   1.000
    H24     H    0.20776   0.13132   0.98103   1.000
    H25     H    0.23022   0.09332   0.70254   1.000
    H26     H    0.35464   0.07145   0.98167   1.000
    H27     H    0.93709   0.12872   0.10903   1.000
    H28     H    0.94199   0.13808   0.27068   1.000
    H29     H    0.63657   0.09713   0.14223   1.000
    H30     H    0.03370   0.11607   0.97538   1.000
    H31     H    0.05327   0.08704   0.70763   1.000
    H32     H    0.64550   0.15901   0.55673   1.000
    H33     H    0.94538   0.06619   0.56123   1.000
    H34     H    0.63224   0.39724   0.88171   1.000
    H35     H    0.94498   0.06636   0.39711   1.000
    H36     H    0.63228   0.56232   0.88389   1.000
    H37     H    0.93680   0.79748   0.87495   1.000
    H38     H    0.63528   0.69053   0.79938   1.000
    H39     H    0.64146   0.85412   0.80525   1.000
    H40     H    0.53101   0.08259   0.97809   1.000
    H41     H    0.92805   0.38602   0.79399   1.000
    H42     H    0.35813   0.16348   0.70473   1.000
    H43     H    0.53550   0.16317   0.71207   1.000
    C44     C    0.66009   0.88226   0.15695   1.000
    C45     C    0.76490   0.88625   0.15816   1.000
    C46     C    0.82246   0.87980   0.08109   1.000
    C47     C    0.21851   0.89403   0.98422   1.000
    C48     C    0.20764   0.88709   0.33003   1.000
    C49     C    0.81052   0.89834   0.23585   1.000
    C50     C    0.60940   0.90518   0.07928   1.000
    C51     C    0.21673   0.71920   0.16307   1.000
    C52     C    0.21393   0.88788   0.88700   1.000
    C53     C    0.12738   0.87627   0.84937   1.000
    C54     C    0.12476   0.87275   0.75894   1.000
    C55     C    0.21048   0.16165   0.15821   1.000
    C56     C    0.29463   0.89462   0.83022   1.000
    C57     C    0.20642   0.88516   0.60942   1.000
    C58     C    0.21974   0.62045   0.16261   1.000
    C59     C    0.92007   0.88709   0.08357   1.000
    C60     C    0.90873   0.90381   0.23351   1.000
    C61     C    0.20868   0.88314   0.70701   1.000
    C62     C    0.28708   0.86169   0.47761   1.000
    C63     C    0.20482   0.88713   0.42845   1.000
    C64     C    0.11981   0.91325   0.47479   1.000
    C65     C    0.20484   0.06418   0.15393   1.000
    C66     C    0.30398   0.56969   0.13756   1.000
    C67     C    0.12044   0.91252   0.56586   1.000
    C68     C    0.21677   0.34192   0.16240   1.000
    C69     C    0.30365   0.47839   0.13721   1.000
    C70     C    0.13147   0.22467   0.14126   1.000
    C71     C    0.29946   0.28379   0.18201   1.000
    C72     C    0.29632   0.19309   0.17955   1.000
    C73     C    0.21891   0.43960   0.16226   1.000
    C74     C    0.51090   0.90112   0.08083   1.000
    C75     C    0.13863   0.57579   0.18621   1.000
    C76     C    0.60703   0.85642   0.23320   1.000
    C77     C    0.50837   0.85526   0.22988   1.000
    C78     C    0.33998   0.11771   0.84305   1.000
    C79     C    0.23517   0.11372   0.84183   1.000
    C80     C    0.17760   0.12017   0.91891   1.000
    C81     C    0.78163   0.10593   0.01578   1.000
    C82     C    0.79240   0.11289   0.66998   1.000
    C83     C    0.18955   0.10164   0.76415   1.000
    C84     C    0.39066   0.09478   0.92072   1.000
    C85     C    0.78331   0.28077   0.83693   1.000
    C86     C    0.78618   0.11209   0.11300   1.000
    C87     C    0.87270   0.12371   0.15065   1.000
    C88     C    0.87531   0.12723   0.24107   1.000
    C89     C    0.78958   0.83832   0.84179   1.000
    C90     C    0.70546   0.10535   0.16976   1.000
    C91     C    0.79363   0.11481   0.39058   1.000
    C92     C    0.78030   0.37952   0.83739   1.000
    C93     C    0.08000   0.11288   0.91643   1.000
    C94     C    0.09134   0.09617   0.76648   1.000
    C95     C    0.79139   0.11684   0.29299   1.000
    C96     C    0.71296   0.13828   0.52239   1.000
    C97     C    0.79522   0.11285   0.57155   1.000
    C98     C    0.88023   0.08672   0.52521   1.000
    C99     C    0.79522   0.93579   0.84607   1.000
    C100    C    0.69605   0.43028   0.86242   1.000
    C101    C    0.87961   0.08745   0.43414   1.000
    C102    C    0.78328   0.65805   0.83760   1.000
    C103    C    0.69639   0.52158   0.86277   1.000
    C104    C    0.86858   0.77529   0.85875   1.000
    C105    C    0.70060   0.71618   0.81798   1.000
    C106    C    0.70374   0.80688   0.82044   1.000
    C107    C    0.78114   0.56037   0.83773   1.000
    C108    C    0.48917   0.09885   0.91917   1.000
    C109    C    0.86141   0.42417   0.81380   1.000
    C110    C    0.39304   0.14355   0.76680   1.000
    C111    C    0.49170   0.14472   0.77013   1.000
    N112    N    0.46056   0.87721   0.15488   1.000
    N113    N    0.96301   0.89886   0.15858   1.000
    N114    N    0.29317   0.89349   0.74263   1.000
    N115    N    0.13330   0.31234   0.14271   1.000
    N116    N    0.28918   0.86040   0.56534   1.000
    N117    N    0.13709   0.48787   0.18650   1.000
    N118    N    0.53950   0.12276   0.84512   1.000
    N119    N    0.03706   0.10111   0.84141   1.000
    N120    N    0.70690   0.10650   0.25735   1.000
    N121    N    0.86675   0.68762   0.85729   1.000
    N122    N    0.71086   0.13957   0.43466   1.000
    N123    N    0.86296   0.51209   0.81351   1.000
    O124    O    0.29898   0.90418   0.01561   1.000
    O125    O    0.13953   0.88891   0.02810   1.000
    O126    O    0.28783   0.86387   0.29226   1.000
    O127    O    0.12858   0.91118   0.29197   1.000
    O128    O    0.12378   0.03781   0.14089   1.000
    O129    O    0.29589   0.75222   0.14400   1.000
    O130    O    0.13696   0.76250   0.18157   1.000
    O131    O    0.28407   0.01515   0.16295   1.000
    O132    O    0.70116   0.09578   0.98437   1.000
    O133    O    0.86062   0.11105   0.97192   1.000
    O134    O    0.71221   0.13610   0.70774   1.000
    O135    O    0.87146   0.08879   0.70803   1.000
    O136    O    0.87628   0.96215   0.85911   1.000
    O137    O    0.70415   0.24775   0.85600   1.000
    O138    O    0.86308   0.23746   0.81844   1.000
    O139    O    0.71599   0.98482   0.83705   1.000
loop_
    _geom_bond_atom_site_label_1
    _geom_bond_atom_site_label_2
    _geom_bond_distance
    _geom_bond_site_symmetry_2
    _ccdc_geom_bond_type
    O124   Zn1       2.13768      .   S
    O124   C47       1.27284  1_554   S
    C81    C86       1.49799      .   S
    C81    O133      1.27537  1_554   S
    C81    O132      1.27284  1_554   S
    H6     C50       1.08914      .   S
    H4     C46       1.08685      .   S
    H20    C74       1.08955      .   S
    H10    C59       1.08803      .   S
    O125   Zn0       2.05533      .   S
    O125   C47       1.27534  1_554   S
    C50    C74       1.38775      .   S
    C50    C44       1.40555      .   S
    C74    N112      1.34967      .   S
    C46    C59       1.38659      .   S
    C46    C45       1.40203      .   S
    C59    N113      1.34847      .   S
    H27    C87       1.08696      .   S
    C86    C87       1.39746      .   S
    C86    C90       1.40250      .   S
    H16    C69       1.08966      .   S
    H14    C66       1.08909      .   S
    H17    C70       1.09163      .   S
    C69    C66       1.38865      .   S
    C69    C73       1.40554      .   S
    C66    C58       1.39854      .   S
    O128   C65       1.27282      .   S
    O128   Zn0       2.11513  1_545   S
    C70    N115      1.33759      .   S
    C70    C55       1.40263      .   S
    H29    C90       1.09216      .   S
    N115   C68       1.35100      .   S
    O129   Zn1       2.02139      .   S
    O129   C51       1.27791      .   S
    C87    C88       1.38669      .   S
    C65    C55       1.49901      .   S
    C65    O131      1.27575      .   S
    N112   Zn1       2.06503      .   S
    N112   C77       1.34865      .   S
    Zn1    O131      2.04632  1_565   S
    Zn1    O126      2.10618      .   S
    C44    C45       1.47774      .   S
    C44    C76       1.40358      .   S
    C45    C49       1.40427      .   S
    C55    C72       1.40122      .   S
    N113   Zn0       2.05215  1_655   S
    N113   C60       1.34914      .   S
    Zn0    O130      2.08986      .   S
    Zn0    O127      2.06626      .   S
    C73    C68       1.48790      .   S
    C73    N117      1.35048      .   S
    C68    C71       1.40707      .   S
    C58    C51       1.49757      .   S
    C58    C75       1.40338      .   S
    C51    O130      1.27013      .   S
    C90    N120      1.33832      .   S
    C72    C71       1.38778      .   S
    C72    H19       1.08927      .   S
    C71    H18       1.08954      .   S
    C75    N117      1.33838      .   S
    C75    H21       1.09184      .   S
    C77    C76       1.38808      .   S
    C77    H23       1.08972      .   S
    C76    H22       1.08853      .   S
    C60    C49       1.38663      .   S
    C60    H11       1.08931      .   S
    C49    H5        1.08819      .   S
    C88    H28       1.08886      .   S
    C88    C95       1.40545      .   S
    N120   C95       1.35288      .   S
    O127   C48       1.27678      .   S
    O126   C48       1.27147      .   S
    C95    C91       1.48742      .   S
    C48    C63       1.49977      .   S
    C91    C101      1.40705      .   S
    C91    N122      1.35114      .   S
    H35    C101      1.08946      .   S
    C63    C64       1.39820      .   S
    C63    C62       1.40314      .   S
    C101   C98       1.38824      .   S
    N122   C96       1.33778      .   S
    H13    C64       1.08853      .   S
    H12    C62       1.09168      .   S
    C64    C67       1.38825      .   S
    C62    N116      1.33777      .   S
    C96    H32       1.09167      .   S
    C96    C97       1.40314      .   S
    C98    H33       1.08852      .   S
    C98    C97       1.39820      .   S
    N116   C57       1.35114      .   S
    C67    H15       1.08946      .   S
    C67    C57       1.40706      .   S
    C97    C82       1.49978      .   S
    C57    C61       1.48742      .   S
    C82    O134      1.27148      .   S
    C82    O135      1.27677      .   S
    H25    C83       1.08820      .   S
    H42    C110      1.08853      .   S
    C61    N114      1.35288      .   S
    C61    C54       1.40545      .   S
    H31    C94       1.08931      .   S
    O134   Zn3       2.10616      .   S
    O135   Zn2       2.06628      .   S
    H43    C111      1.08971      .   S
    H8     C54       1.08886      .   S
    N114   C56       1.33830      .   S
    C54    C53       1.38670      .   S
    C83    C94       1.38663      .   S
    C83    C79       1.40426      .   S
    C94    N119      1.34915      .   S
    C110   C111      1.38806      .   S
    C110   C78       1.40357      .   S
    C111   N118      1.34866      .   S
    H41    C109      1.09184      .   S
    H38    C105      1.08955      .   S
    H39    C106      1.08928      .   S
    N123   C109      1.33838      .   S
    N123   C107      1.35048      .   S
    C109   C92       1.40337      .   S
    C105   C106      1.38776      .   S
    C105   C102      1.40707      .   S
    O138   C85       1.27013      .   S
    O138   Zn2       2.08987      .   S
    C106   C89       1.40123      .   S
    C56    H9        1.09217      .   S
    C56    C52       1.40250      .   S
    C85    C92       1.49758      .   S
    C85    O137      1.27792      .   S
    O139   Zn3       2.04635  1_565   S
    O139   C99       1.27575      .   S
    C92    C100      1.39852      .   S
    C102   C107      1.48791      .   S
    C102   N121      1.35099      .   S
    C107   C103      1.40554      .   S
    Zn2    N119      2.05227  1_655   S
    Zn2    O136      2.11513  1_545   S
    Zn2    O133      2.05533      .   S
    N119   C93       1.34848      .   S
    C89    C99       1.49901      .   S
    C89    C104      1.40264      .   S
    C79    C78       1.47773      .   S
    C79    C80       1.40203      .   S
    C78    C84       1.40554      .   S
    Zn3    N118      2.06483      .   S
    Zn3    O137      2.02141      .   S
    Zn3    O132      2.13753      .   S
    N118   C108      1.34967      .   S
    C99    O136      1.27283      .   S
    C53    C52       1.39746      .   S
    C53    H7        1.08698      .   S
    N121   C104      1.33761      .   S
    C104   H37       1.09162      .   S
    C100   C103      1.38867      .   S
    C100   H34       1.08909      .   S
    C103   H36       1.08965      .   S
    C52    C47       1.49798      .   S
    C93    C80       1.38659      .   S
    C93    H30       1.08801      .   S
    C80    H24       1.08685      .   S
    C108   C84       1.38774      .   S
    C108   H40       1.08956      .   S
    C84    H26       1.08916      .   S
    Zn0    Zn1       2.83742      .   S
    Zn2    Zn3       2.83752      .   S
