# CIF file generated by openbabel 2.4.90, see http://openbabel.sf.net
data_I
_chemical_name_common ''
_cell_length_a 6.045
_cell_length_b 14.041
_cell_length_c 15.6335
_cell_angle_alpha 90.032
_cell_angle_beta 90.648
_cell_angle_gamma 90.003
_space_group_name_H-M_alt 'P 1'
_space_group_name_Hall 'P 1'
loop_
    _symmetry_equiv_pos_as_xyz
    x,y,z
loop_
    _atom_site_label
    _atom_site_type_symbol
    _atom_site_fract_x
    _atom_site_fract_y
    _atom_site_fract_z
    _atom_site_occupancy
    Sr0     Sr   0.23340   0.50817   0.43857   1.000
    Sr1     Sr   0.73338   0.99153   0.93874   1.000
    Sr2     Sr   0.76667   0.49182   0.56143   1.000
    Sr3     Sr   0.26671   0.00845   0.06126   1.000
