# CIF file generated by openbabel 2.4.90, see http://openbabel.sf.net
data_I
_chemical_name_common ''
_cell_length_a 9.8895
_cell_length_b 14.0466
_cell_length_c 14.0477
_cell_angle_alpha 82.8964
_cell_angle_beta 69.3924
_cell_angle_gamma 69.4098
_space_group_name_H-M_alt 'P 1'
_space_group_name_Hall 'P 1'
loop_
    _symmetry_equiv_pos_as_xyz
    x,y,z
loop_
    _atom_site_label
    _atom_site_type_symbol
    _atom_site_fract_x
    _atom_site_fract_y
    _atom_site_fract_z
    _atom_site_occupancy
    Zr0     Zr   0.46481   0.84484   0.58873   1.000
    Zr1     Zr   0.89832   0.15523   0.41124   1.000
    Zr2     Zr   0.69026   0.41125   0.84491   1.000
    Zr3     Zr   0.94641   0.58877   0.15522   1.000
    Zr4     Zr   0.39835   0.41124   0.15522   1.000
    Zr5     Zr   0.96482   0.58874   0.84484   1.000
    Zr6     Zr   0.44636   0.15524   0.58876   1.000
    Zr7     Zr   0.19024   0.84493   0.41123   1.000
    N8      N    0.00682   0.35873   0.28279   1.000
    O9      O    0.97711   0.29159   0.32755   1.000
    O10     O    0.99441   0.43290   0.23843   1.000
    O11     O    0.14127   0.37588   0.24239   1.000
    N12     N    0.63444   0.71740   0.35869   1.000
    O13     O    0.57270   0.76175   0.43286   1.000
    O14     O    0.48280   0.75777   0.37588   1.000
    O15     O    0.73125   0.67258   0.29157   1.000
    N16     N    0.50678   0.28281   0.35874   1.000
    O17     O    0.47709   0.32757   0.29161   1.000
    O18     O    0.49436   0.23845   0.43291   1.000
    O19     O    0.64122   0.24242   0.37589   1.000
    N20     N    0.21031   0.64136   0.28278   1.000
    O21     O    0.26710   0.56717   0.23841   1.000
    O22     O    0.11627   0.62418   0.24240   1.000
    O23     O    0.19522   0.70850   0.32755   1.000
    N24     N    0.13444   0.35871   0.71741   1.000
    O25     O    0.07270   0.43287   0.76175   1.000
    O26     O    0.98280   0.37590   0.75776   1.000
    O27     O    0.23124   0.29159   0.67258   1.000
    N28     N    0.64806   0.64131   0.71734   1.000
    O29     O    0.66544   0.56715   0.76173   1.000
    O30     O    0.75937   0.62411   0.75768   1.000
    O31     O    0.59610   0.70843   0.67250   1.000
    N32     N    0.25018   0.00004   0.99996   1.000
    O33     O    0.33767   0.05751   0.83146   1.000
    O34     O    0.22652   0.94259   0.16847   1.000
    O35     O    0.33117   0.94256   0.83145   1.000
    O36     O    0.10518   0.05754   0.16848   1.000
    N37     N    0.71033   0.28279   0.64135   1.000
    O38     O    0.69525   0.32757   0.70850   1.000
    O39     O    0.76711   0.23842   0.56716   1.000
    O40     O    0.61627   0.24242   0.62417   1.000
    N41     N    0.75034   0.99996   0.00003   1.000
    O42     O    0.83778   0.83147   0.05749   1.000
    O43     O    0.60532   0.16849   0.05753   1.000
    O44     O    0.83128   0.83146   0.94255   1.000
    O45     O    0.72665   0.16849   0.94257   1.000
    N46     N    0.14806   0.71734   0.64130   1.000
    O47     O    0.16545   0.76173   0.56713   1.000
    O48     O    0.25937   0.75768   0.62410   1.000
    O49     O    0.09610   0.67250   0.70842   1.000
    N50     N    0.70556   0.50012   0.08864   1.000
    O51     O    0.78811   0.52981   0.10515   1.000
    O52     O    0.79593   0.52673   0.00336   1.000
    O53     O    0.60655   0.47037   0.10514   1.000
    O54     O    0.70058   0.47336   0.00338   1.000
    N55     N    0.79417   0.91148   0.50001   1.000
    O56     O    0.92292   0.89498   0.47031   1.000
    O57     O    0.82590   0.99675   0.47327   1.000
    O58     O    0.68197   0.89495   0.52969   1.000
    O59     O    0.67720   0.99674   0.52662   1.000
    N60     N    0.20556   0.08864   0.50010   1.000
    O61     O    0.28809   0.10516   0.52979   1.000
    O62     O    0.29593   0.00336   0.52671   1.000
    O63     O    0.10655   0.10514   0.47036   1.000
    O64     O    0.20059   0.00338   0.47333   1.000
    N65     N    0.29421   0.49999   0.91148   1.000
    O66     O    0.18200   0.52968   0.89495   1.000
    O67     O    0.17724   0.52661   0.99674   1.000
    O68     O    0.32593   0.47325   0.99674   1.000
    O69     O    0.42295   0.47030   0.89497   1.000
loop_
    _geom_bond_atom_site_label_1
    _geom_bond_atom_site_label_2
    _geom_bond_distance
    _geom_bond_site_symmetry_2
    _ccdc_geom_bond_type
    N8     O9        1.13544  1_455   S
    Zr1    O9        2.34656      .   S
    N8     O10       1.13678  1_455   S
    Zr3    O10       2.32628      .   S
    N8     O11       1.34468      .   S
    Zr4    O11       2.59930      .   S
    N12    O13       1.13642      .   S
    Zr0    O13       2.32527      .   S
    N12    O14       1.34521      .   S
    Zr7    O14       2.60073      .   S
    N12    O15       1.13559      .   S
    Zr3    O15       2.34714      .   S
    N16    O17       1.13555      .   S
    Zr4    O17       2.34688      .   S
    N16    O18       1.13669      .   S
    Zr6    O18       2.32602      .   S
    N16    O19       1.34490      .   S
    Zr1    O19       2.59990      .   S
    N20    O21       1.13690      .   S
    Zr4    O21       2.32669      .   S
    N20    O22       1.34458      .   S
    Zr3    O22       2.59918  1_655   S
    N20    O23       1.13538      .   S
    Zr7    O23       2.34650      .   S
    N24    O25       1.13642      .   S
    Zr5    O25       2.32525  1_655   S
    N24    O26       1.34510  1_455   S
    Zr2    O26       2.60040      .   S
    N24    O27       1.13560      .   S
    Zr6    O27       2.34712      .   S
    N28    O29       1.13683      .   S
    Zr2    O29       2.32637      .   S
    N28    O30       1.34524      .   S
    Zr5    O30       2.60098      .   S
    N28    O31       1.13568      .   S
    Zr0    O31       2.34743      .   S
    N32    O33       2.36214      .   S
    Zr6    O33       3.45898      .   S
    N32    O34       2.36230  1_546   S
    Zr7    O34       3.45941      .   S
    N32    O35       2.36217  1_545   S
    Zr0    O35       3.45919      .   S
    N32    O36       2.36260  1_556   S
    Zr1    O36       3.45969  1_655   S
    N37    O38       1.13542      .   S
    Zr2    O38       2.34657      .   S
    N37    O39       1.13686      .   S
    Zr1    O39       2.32653      .   S
    N37    O40       1.34471      .   S
    Zr6    O40       2.59940      .   S
    N41    O42       2.36226      .   S
    Zr3    O42       3.45915      .   S
    N41    O43       2.36270  1_565   S
    Zr4    O43       3.45992      .   S
    N41    O44       2.36221  1_554   S
    Zr5    O44       3.45929      .   S
    N41    O45       2.36232  1_564   S
    Zr2    O45       3.45932      .   S
    N46    O47       1.13687      .   S
    Zr7    O47       2.32655      .   S
    N46    O48       1.34504      .   S
    Zr0    O48       2.60035      .   S
    N46    O49       1.13551      .   S
    Zr5    O49       2.34690  1_655   S
    N50    O51       1.13618      .   S
    Zr3    O51       2.33720      .   S
    N50    O52       1.32068      .   S
    Zr5    O52       2.53620  1_556   S
    N50    O53       1.13624      .   S
    Zr4    O53       2.33736      .   S
    N50    O54       1.32063      .   S
    Zr2    O54       2.53571  1_556   S
    N55    O56       1.13637      .   S
    Zr7    O56       2.33767  1_455   S
    N55    O57       1.32069      .   S
    Zr1    O57       2.53575  1_545   S
    N55    O58       1.13602      .   S
    Zr0    O58       2.33684      .   S
    N55    O59       1.32069      .   S
    Zr6    O59       2.53638  1_545   S
    N60    O61       1.13615      .   S
    Zr6    O61       2.33707      .   S
    N60    O62       1.32090      .   S
    Zr0    O62       2.53674  1_565   S
    N60    O63       1.13641      .   S
    Zr1    O63       2.33785  1_655   S
    N60    O64       1.32057      .   S
    Zr7    O64       2.53546  1_565   S
    N65    O66       1.13623      .   S
    Zr5    O66       2.33742  1_655   S
    N65    O67       1.32050      .   S
    Zr3    O67       2.53603  1_654   S
    N65    O68       1.32082      .   S
    Zr4    O68       2.53608  1_554   S
    N65    O69       1.13634      .   S
    Zr2    O69       2.33759      .   S
