# CIF file generated by openbabel 2.4.90, see http://openbabel.sf.net
data_I
_chemical_name_common ''
_cell_length_a 9.8895
_cell_length_b 14.0466
_cell_length_c 14.0477
_cell_angle_alpha 82.8964
_cell_angle_beta 69.3924
_cell_angle_gamma 69.4098
_space_group_name_H-M_alt 'P 1'
_space_group_name_Hall 'P 1'
loop_
    _symmetry_equiv_pos_as_xyz
    x,y,z
loop_
    _atom_site_label
    _atom_site_type_symbol
    _atom_site_fract_x
    _atom_site_fract_y
    _atom_site_fract_z
    _atom_site_occupancy
    N0      N    0.00682   0.35873   0.28279   1.000
    N1      N    0.63444   0.71740   0.35869   1.000
    N2      N    0.50678   0.28281   0.35874   1.000
    N3      N    0.21031   0.64136   0.28278   1.000
    N4      N    0.13444   0.35871   0.71741   1.000
    N5      N    0.64806   0.64131   0.71734   1.000
    N6      N    0.25018   0.00004   0.99996   1.000
    N7      N    0.71033   0.28279   0.64135   1.000
    N8      N    0.75034   0.99996   0.00003   1.000
    N9      N    0.14806   0.71734   0.64130   1.000
    N10     N    0.70556   0.50012   0.08864   1.000
    N11     N    0.79417   0.91148   0.50001   1.000
    N12     N    0.20556   0.08864   0.50010   1.000
    N13     N    0.29421   0.49999   0.91148   1.000
    Zr14    Zr   0.89832   0.15523   0.41124   1.000
    O15     O    0.86211   0.07599   0.44225   1.000
    O16     O    0.00244   0.13018   0.44080   1.000
    O17     O    0.83272   0.19682   0.48920   1.000
    O18     O    0.76977   0.19882   0.39357   1.000
    O19     O    0.93772   0.22341   0.36939   1.000
    O20     O    0.00175   0.10638   0.28986   1.000
    Zr21    Zr   0.46481   0.84484   0.58873   1.000
    O22     O    0.36209   0.80126   0.60642   1.000
    O23     O    0.53045   0.77663   0.63062   1.000
    O24     O    0.38037   0.92410   0.55772   1.000
    O25     O    0.39799   0.89370   0.71009   1.000
    O26     O    0.51875   0.80329   0.51080   1.000
    O27     O    0.57339   0.86990   0.55921   1.000
    Zr28    Zr   0.96482   0.58874   0.84484   1.000
    O29     O    0.07341   0.55921   0.86990   1.000
    O30     O    0.03046   0.63062   0.77663   1.000
    O31     O    0.86209   0.60643   0.80126   1.000
    O32     O    0.01876   0.51080   0.80330   1.000
    O33     O    0.88038   0.55774   0.92410   1.000
    O34     O    0.89805   0.71010   0.89370   1.000
    Zr35    Zr   0.39835   0.41124   0.15522   1.000
    O36     O    0.50245   0.44081   0.13018   1.000
    O37     O    0.43772   0.36941   0.22341   1.000
    O38     O    0.33272   0.48921   0.19681   1.000
    O39     O    0.36214   0.44224   0.07598   1.000
    O40     O    0.50184   0.28986   0.10638   1.000
    O41     O    0.26981   0.39356   0.19881   1.000
    Zr42    Zr   0.69026   0.41125   0.84491   1.000
    O43     O    0.69275   0.36941   0.77671   1.000
    O44     O    0.69542   0.44231   0.92415   1.000
    O45     O    0.67785   0.48920   0.80332   1.000
    O46     O    0.55660   0.44078   0.86994   1.000
    O47     O    0.70846   0.28987   0.89374   1.000
    O48     O    0.83653   0.39358   0.80134   1.000
    Zr49    Zr   0.94641   0.58877   0.15522   1.000
    O50     O    0.86726   0.55929   0.13019   1.000
    O51     O    0.06183   0.55769   0.07598   1.000
    O52     O    0.03134   0.60647   0.19881   1.000
    O53     O    0.83883   0.63067   0.22340   1.000
    O54     O    0.89209   0.71012   0.10636   1.000
    O55     O    0.97041   0.51084   0.19683   1.000
    Zr56    Zr   0.19024   0.84493   0.41123   1.000
    O57     O    0.17785   0.80333   0.48918   1.000
    O58     O    0.19542   0.92415   0.44228   1.000
    O59     O    0.19273   0.77672   0.36939   1.000
    O60     O    0.33652   0.80135   0.39355   1.000
    O61     O    0.05658   0.86995   0.44077   1.000
    O62     O    0.20838   0.89376   0.28985   1.000
    Zr63    Zr   0.44636   0.15524   0.58876   1.000
    O64     O    0.39202   0.10637   0.71011   1.000
    O65     O    0.47036   0.19684   0.51084   1.000
    O66     O    0.33880   0.22341   0.63067   1.000
    O67     O    0.36723   0.13020   0.55928   1.000
    O68     O    0.56178   0.07599   0.55769   1.000
    O69     O    0.53131   0.19883   0.60646   1.000
loop_
    _geom_bond_atom_site_label_1
    _geom_bond_atom_site_label_2
    _geom_bond_distance
    _geom_bond_site_symmetry_2
    _ccdc_geom_bond_type
    Zr14   O15       1.26787      .   S
    N11    O15       2.58727  1_565   S
    Zr14   O16       1.16892  1_655   S
    N12    O16       2.30282      .   S
    Zr14   O17       1.16327      .   S
    N7     O17       2.29798      .   S
    Zr14   O18       1.29995      .   S
    N2     O18       2.64392      .   S
    Zr14   O19       1.17328      .   S
    N0     O19       2.30579  1_455   S
    Zr14   O20       1.72984  1_655   S
    N6     O20       4.09058  1_556   S
    Zr21   O22       1.30018      .   S
    N9     O22       2.64428      .   S
    Zr21   O23       1.17371      .   S
    N5     O23       2.30644      .   S
    Zr21   O24       1.26837      .   S
    N12    O24       2.58793  1_545   S
    Zr21   O25       1.72960      .   S
    N6     O25       4.08989  1_545   S
    Zr21   O26       1.16263      .   S
    N1     O26       2.29692      .   S
    Zr21   O27       1.16842      .   S
    N11    O27       2.30193      .   S
    Zr28   O29       1.16871  1_655   S
    N13    O29       2.30242      .   S
    Zr28   O30       1.17345  1_655   S
    N9     O30       2.30602      .   S
    Zr28   O31       1.30049      .   S
    N5     O31       2.64479      .   S
    Zr28   O32       1.16262  1_655   S
    N4     O32       2.29690      .   S
    Zr28   O33       1.26810      .   S
    N10    O33       2.58745  1_554   S
    Zr28   O34       1.72965      .   S
    N8     O34       4.08998  1_554   S
    Zr35   O36       1.16868      .   S
    N10    O36       2.30241      .   S
    Zr35   O37       1.17344      .   S
    N2     O37       2.30606      .   S
    Zr35   O38       1.16334      .   S
    N3     O38       2.29809      .   S
    Zr35   O39       1.26804      .   S
    N13    O39       2.58757  1_556   S
    Zr35   O40       1.72996      .   S
    N8     O40       4.09081  1_565   S
    Zr35   O41       1.29965      .   S
    N0     O41       2.64340      .   S
    Zr42   O43       1.17329      .   S
    N7     O43       2.30577      .   S
    Zr42   O44       1.26786      .   S
    N10    O44       2.58718  1_554   S
    Zr42   O45       1.16318      .   S
    N5     O45       2.29787      .   S
    Zr42   O46       1.16879      .   S
    N13    O46       2.30262      .   S
    Zr42   O47       1.72966      .   S
    N8     O47       4.09010  1_564   S
    Zr42   O48       1.30020      .   S
    N4     O48       2.64437  1_455   S
    Zr49   O50       1.16860      .   S
    N10    O50       2.30227      .   S
    Zr49   O51       1.26802  1_655   S
    N13    O51       2.58716  1_556   S
    Zr49   O52       1.29959  1_655   S
    N3     O52       2.64324      .   S
    Zr49   O53       1.17357      .   S
    N1     O53       2.30621      .   S
    Zr49   O54       1.72957      .   S
    N8     O54       4.08993      .   S
    Zr49   O55       1.16314      .   S
    N0     O55       2.29778  1_455   S
    Zr56   O57       1.16327      .   S
    N9     O57       2.29800      .   S
    Zr56   O58       1.26773      .   S
    N12    O58       2.58700  1_545   S
    Zr56   O59       1.17325      .   S
    N3     O59       2.30569      .   S
    Zr56   O60       1.30036      .   S
    N1     O60       2.64465      .   S
    Zr56   O61       1.16884      .   S
    N11    O61       2.30269  1_655   S
    Zr56   O62       1.72970      .   S
    N6     O62       4.09013  1_546   S
    Zr63   O64       1.72949      .   S
    N6     O64       4.08972      .   S
    Zr63   O65       1.16301      .   S
    N2     O65       2.29756      .   S
    Zr63   O66       1.17356      .   S
    N4     O66       2.30622      .   S
    Zr63   O67       1.16854      .   S
    N12    O67       2.30218      .   S
    Zr63   O68       1.26819      .   S
    N11    O68       2.58753  1_565   S
    Zr63   O69       1.29970      .   S
    N7     O69       2.64347      .   S
