# CIF file generated by openbabel 2.4.90, see http://openbabel.sf.net
data_I
_chemical_name_common ''
_cell_length_a 13.087
_cell_length_b 16.838
_cell_length_c 13.96
_cell_angle_alpha 105.88
_cell_angle_beta 89.81
_cell_angle_gamma 90.133
_space_group_name_H-M_alt 'P 1'
_space_group_name_Hall 'P 1'
loop_
    _symmetry_equiv_pos_as_xyz
    x,y,z
loop_
    _atom_site_label
    _atom_site_type_symbol
    _atom_site_fract_x
    _atom_site_fract_y
    _atom_site_fract_z
    _atom_site_occupancy
    Lv0     Lv   0.17126   0.12925   0.40552   1.000
    Lv1     Lv   0.27026   0.56499   0.13314   1.000
    Lv2     Lv   0.33026   0.12873   0.90786   1.000
    Lv3     Lv   0.76945   0.43442   0.36652   1.000
    Lv4     Lv   0.73214   0.43330   0.86534   1.000
    Lv5     Lv   0.83100   0.87081   0.59368   1.000
    Lv6     Lv   0.67228   0.86915   0.09082   1.000
    Lv7     Lv   0.23101   0.56572   0.63281   1.000
