# CIF file generated by openbabel 2.4.90, see http://openbabel.sf.net
data_I
_chemical_name_common ''
_cell_length_a 13.087
_cell_length_b 16.838
_cell_length_c 13.96
_cell_angle_alpha 105.88
_cell_angle_beta 89.81
_cell_angle_gamma 90.133
_space_group_name_H-M_alt 'P 1'
_space_group_name_Hall 'P 1'
loop_
    _symmetry_equiv_pos_as_xyz
    x,y,z
loop_
    _atom_site_label
    _atom_site_type_symbol
    _atom_site_fract_x
    _atom_site_fract_y
    _atom_site_fract_z
    _atom_site_occupancy
    O0      O    0.19118   0.40902   0.63844   1.000
    O1      O    0.42301   0.22461   0.07417   1.000
    O2      O    0.69226   0.58934   0.85757   1.000
    O3      O    0.92401   0.77494   0.42743   1.000
    O4      O    0.81012   0.59051   0.35874   1.000
    O5      O    0.57837   0.77356   0.92590   1.000
    O6      O    0.31131   0.40940   0.14181   1.000
    O7      O    0.07928   0.22517   0.57241   1.000
