# CIF file generated by openbabel 2.4.90, see http://openbabel.sf.net
data_I
_chemical_name_common ''
_cell_length_a 13.087
_cell_length_b 16.838
_cell_length_c 13.96
_cell_angle_alpha 105.88
_cell_angle_beta 89.81
_cell_angle_gamma 90.133
_space_group_name_H-M_alt 'P 1'
_space_group_name_Hall 'P 1'
loop_
    _symmetry_equiv_pos_as_xyz
    x,y,z
loop_
    _atom_site_label
    _atom_site_type_symbol
    _atom_site_fract_x
    _atom_site_fract_y
    _atom_site_fract_z
    _atom_site_occupancy
    Zn0     Zn   0.44354   0.34732   0.10563   1.000
    Zn1     Zn   0.00412   0.18029   0.68739   1.000
    Zn2     Zn   0.94239   0.65222   0.39502   1.000
    Zn3     Zn   0.50232   0.17829   0.18685   1.000
    Zn4     Zn   0.55959   0.64999   0.89127   1.000
    Zn5     Zn   0.00000   0.81941   0.31243   1.000
    Zn6     Zn   0.05824   0.34768   0.60461   1.000
    C7      C    0.40735   0.65238   0.74002   1.000
    Zn8     Zn   0.50146   0.81957   0.81287   1.000
    C9      C    0.09962   0.64771   0.52101   1.000
    C10     C    0.38811   0.95651   0.83150   1.000
    C11     C    0.17714   0.19944   0.80350   1.000
    C12     C    0.90913   0.34709   0.75894   1.000
    C13     C    0.60083   0.35151   0.97846   1.000
    C14     C    0.88990   0.04286   0.67108   1.000
    C15     C    0.67543   0.80039   0.69709   1.000
    C16     C    0.59424   0.34730   0.25832   1.000
    C17     C    0.89859   0.35329   0.48097   1.000
    C18     C    0.61449   0.04155   0.16869   1.000
    C19     C    0.82683   0.79792   0.19420   1.000
    C20     C    0.09477   0.65231   0.24182   1.000
    C21     C    0.39972   0.64577   0.01724   1.000
    C22     C    0.11195   0.95726   0.32874   1.000
    C23     C    0.32647   0.19928   0.30140   1.000
    O24     O    0.47113   0.61045   0.77467   1.000
    O25     O    0.40872   0.72944   0.74987   1.000
    O26     O    0.00646   0.61912   0.50460   1.000
    O27     O    0.13787   0.70201   0.48700   1.000
    O28     O    0.43056   0.91962   0.89145   1.000
    O29     O    0.37783   0.92578   0.74010   1.000
    O30     O    0.12393   0.14223   0.74171   1.000
    O31     O    0.16444   0.27491   0.82116   1.000
    O32     O    0.97273   0.38895   0.72330   1.000
    O33     O    0.91098   0.27019   0.75006   1.000
    O34     O    0.50724   0.37898   0.99448   1.000
    O35     O    0.63986   0.29817   0.00000   1.000
    O36     O    0.93196   0.08020   0.61110   1.000
    O37     O    0.87996   0.07303   0.76264   1.000
    O38     O    0.62178   0.85771   0.75837   1.000
    O39     O    0.66223   0.72492   0.67943   1.000
    O40     O    0.53211   0.38891   0.22140   1.000
    O41     O    0.59186   0.27052   0.25015   1.000
    O42     O    0.99288   0.37958   0.49513   1.000
    O43     O    0.85835   0.30126   0.51700   1.000
    O44     O    0.57368   0.07891   0.10828   1.000
    O45     O    0.62333   0.07213   0.26022   1.000
    O46     O    0.87977   0.85498   0.25663   1.000
    O47     O    0.83998   0.72244   0.17525   1.000
    O48     O    0.03148   0.61101   0.27851   1.000
    O49     O    0.09329   0.72917   0.25008   1.000
    O50     O    0.49319   0.61796   0.00078   1.000
    O51     O    0.36044   0.69904   0.98304   1.000
    O52     O    0.07132   0.91978   0.38930   1.000
    O53     O    0.12030   0.92704   0.23700   1.000
    O54     O    0.38199   0.14165   0.24277   1.000
    O55     O    0.33796   0.27471   0.31657   1.000
loop_
    _geom_bond_atom_site_label_1
    _geom_bond_atom_site_label_2
    _geom_bond_distance
    _geom_bond_site_symmetry_2
    _ccdc_geom_bond_type
    O35    C13       1.14416  1_554   S
    O50    C21       1.30778      .   S
    O50    Zn4       1.95531  1_554   S
    C21    O51       1.23879  1_554   S
    Zn0    O40       1.95833      .   S
    Zn0    O34       1.95669  1_554   S
    O44    C18       1.29893      .   S
    O44    Zn3       1.96758      .   S
    C18    O45       1.24574      .   S
    O47    C19       1.23767      .   S
    Zn3    O54       1.92885      .   S
    Zn3    O41       1.95276      .   S
    C19    O46       1.30589      .   S
    O40    C16       1.27312      .   S
    O53    C22       1.24648      .   S
    C20    O49       1.26757      .   S
    C20    O48       1.27335      .   S
    O54    C23       1.30543      .   S
    O49    Zn5       1.95823      .   S
    O41    C16       1.26679      .   S
    O46    Zn5       1.92594  1_655   S
    O48    Zn2       1.96465  1_455   S
    C23    O55       1.23798      .   S
    Zn5    O52       1.97128      .   S
    C22    O52       1.29735      .   S
    Zn2    O26       1.95726  1_655   S
    C17    O42       1.30729      .   S
    C17    O43       1.23900      .   S
    O27    C9        1.24322      .   S
    O42    Zn6       1.95348  1_655   S
    O26    C9        1.30751      .   S
    Zn6    O32       1.95999  1_455   S
    O36    C14       1.29732      .   S
    O36    Zn1       1.97061  1_655   S
    C14    O37       1.24604      .   S
    O39    C15       1.23836      .   S
    Zn1    O30       1.92950      .   S
    Zn1    O33       1.95417  1_455   S
    C15    O38       1.30517      .   S
    O32    C12       1.27419      .   S
    C7     O25       1.26692      .   S
    C7     O24       1.27338      .   S
    O29    C10       1.24637      .   S
    O30    C11       1.30509      .   S
    O25    Zn8       1.95389      .   S
    O33    C12       1.26698      .   S
    O38    Zn8       1.93023      .   S
    O24    Zn4       1.96178      .   S
    C11    O31       1.23787      .   S
    Zn8    O28       1.97272      .   S
    C10    O28       1.29769      .   S
    C13    O34       1.30698      .   S
