# CIF file generated by openbabel 2.4.90, see http://openbabel.sf.net
data_I
_chemical_name_common ''
_cell_length_a 13.087
_cell_length_b 16.838
_cell_length_c 13.96
_cell_angle_alpha 105.88
_cell_angle_beta 89.81
_cell_angle_gamma 90.133
_space_group_name_H-M_alt 'P 1'
_space_group_name_Hall 'P 1'
loop_
    _symmetry_equiv_pos_as_xyz
    x,y,z
loop_
    _atom_site_label
    _atom_site_type_symbol
    _atom_site_fract_x
    _atom_site_fract_y
    _atom_site_fract_z
    _atom_site_occupancy
    N0      N    0.17126   0.12925   0.40552   1.000
    N1      N    0.27026   0.56499   0.13314   1.000
    N2      N    0.33026   0.12873   0.90786   1.000
    N3      N    0.76945   0.43442   0.36652   1.000
    N4      N    0.73214   0.43330   0.86534   1.000
    N5      N    0.83100   0.87081   0.59368   1.000
    N6      N    0.67228   0.86915   0.09082   1.000
    N7      N    0.23101   0.56572   0.63281   1.000
    Zr8     Zr   0.51928   0.24066   0.17094   1.000
    O9      O    0.60096   0.32173   0.03869   1.000
    O10     O    0.48106   0.22684   0.13664   1.000
    O11     O    0.61158   0.32159   0.24897   1.000
    O12     O    0.37375   0.19810   0.26879   1.000
    O13     O    0.58550   0.08703   0.14480   1.000
    O14     O    0.43182   0.31727   0.15185   1.000
    O15     O    0.47371   0.24797   0.12649   1.000
    Zr16    Zr   0.98374   0.24150   0.67347   1.000
    O17     O    0.02888   0.24865   0.62697   1.000
    O18     O    0.07084   0.31759   0.65173   1.000
    O19     O    0.12888   0.19837   0.77121   1.000
    O20     O    0.89105   0.32161   0.74997   1.000
    O21     O    0.90093   0.32284   0.54082   1.000
    O22     O    0.91787   0.08822   0.64735   1.000
    O23     O    0.02211   0.22772   0.63731   1.000
    Zr24    Zr   0.01829   0.75803   0.32654   1.000
    O25     O    0.09991   0.67717   0.45937   1.000
    O26     O    0.93074   0.68198   0.34718   1.000
    O27     O    0.97345   0.75114   0.37293   1.000
    O28     O    0.87366   0.80025   0.22800   1.000
    O29     O    0.08420   0.91158   0.35236   1.000
    O30     O    0.98065   0.77204   0.36261   1.000
    O31     O    0.11144   0.67749   0.24973   1.000
    Zr32    Zr   0.48268   0.75782   0.82626   1.000
    O33     O    0.52818   0.75024   0.87175   1.000
    O34     O    0.57089   0.68116   0.84613   1.000
    O35     O    0.62827   0.80112   0.72919   1.000
    O36     O    0.52091   0.77144   0.86195   1.000
    O37     O    0.40085   0.67646   0.95860   1.000
    O38     O    0.38983   0.67764   0.74914   1.000
    O39     O    0.41675   0.91118   0.85351   1.000
loop_
    _geom_bond_atom_site_label_1
    _geom_bond_atom_site_label_2
    _geom_bond_distance
    _geom_bond_site_symmetry_2
    _ccdc_geom_bond_type
    Zr8    O9        2.78820      .   S
    N4     O9        3.84416  1_556   S
    Zr8    O10       0.68827      .   S
    N2     O10       3.73674  1_556   S
    Zr8    O11       1.92121      .   S
    N3     O11       2.97818      .   S
    Zr8    O12       2.55323      .   S
    N0     O12       3.62939      .   S
    Zr8    O13       2.65844      .   S
    N6     O13       3.71731  1_565   S
    Zr8    O14       1.80057      .   S
    N1     O14       4.75159      .   S
    Zr8    O15       0.89474      .   S
    N2     O15       3.67935  1_556   S
    Zr16   O17       0.90822  1_655   S
    N0     O17       3.69438      .   S
    Zr16   O18       1.79914  1_655   S
    N7     O18       4.74108      .   S
    Zr16   O19       2.56187  1_655   S
    N2     O19       3.63751      .   S
    Zr16   O20       1.90845      .   S
    N4     O20       2.96549      .   S
    Zr16   O21       2.80853      .   S
    N3     O21       3.86717      .   S
    Zr16   O22       2.64837      .   S
    N5     O22       3.70677  1_565   S
    Zr16   O23       0.70400  1_655   S
    N0     O23       3.75055      .   S
    Zr24   O25       2.79900      .   S
    N7     O25       3.85448      .   S
    Zr24   O26       1.79671  1_455   S
    N3     O26       4.74082      .   S
    Zr24   O27       0.90304  1_455   S
    N5     O27       3.68961      .   S
    Zr24   O28       2.55716  1_455   S
    N6     O28       3.63616      .   S
    Zr24   O29       2.65344      .   S
    N0     O29       3.71210  1_545   S
    Zr24   O30       0.69694  1_455   S
    N5     O30       3.74758      .   S
    Zr24   O31       1.91791      .   S
    N1     O31       2.97758      .   S
    Zr32   O33       0.90626      .   S
    N6     O33       3.68614  1_554   S
    Zr32   O34       1.81124      .   S
    N4     O34       4.75406      .   S
    Zr32   O35       2.55250      .   S
    N5     O35       3.62791      .   S
    Zr32   O36       0.69982      .   S
    N6     O36       3.74024  1_554   S
    Zr32   O37       2.79315      .   S
    N1     O37       3.85240  1_554   S
    Zr32   O38       1.91422      .   S
    N7     O38       2.97290      .   S
    Zr32   O39       2.65093      .   S
    N2     O39       3.71053  1_545   S
