# CIF file generated by openbabel 2.4.90, see http://openbabel.sf.net
data_I
_chemical_name_common ''
_cell_length_a 14.95
_cell_length_b 14.892
_cell_length_c 13.081
_cell_angle_alpha 90
_cell_angle_beta 90
_cell_angle_gamma 90
_space_group_name_H-M_alt 'P 1'
_space_group_name_Hall 'P 1'
loop_
    _symmetry_equiv_pos_as_xyz
    x,y,z
loop_
    _atom_site_label
    _atom_site_type_symbol
    _atom_site_fract_x
    _atom_site_fract_y
    _atom_site_fract_z
    _atom_site_occupancy
    N0      N    0.39417   0.99974   0.83957   1.000
    N1      N    0.39404   0.50042   0.83958   1.000
    N2      N    0.10603   0.99942   0.83983   1.000
    N3      N    0.10590   0.50060   0.83986   1.000
    N4      N    0.00065   0.39391   0.33879   1.000
    N5      N    0.00076   0.89413   0.33900   1.000
    N6      N    0.50072   0.39391   0.33870   1.000
    N7      N    0.49924   0.89407   0.33910   1.000
    N8      N    0.00081   0.10616   0.33875   1.000
    N9      N    0.00082   0.60603   0.33912   1.000
    N10     N    0.50085   0.10615   0.33880   1.000
    N11     N    0.49929   0.60597   0.33901   1.000
    N12     N    0.10598   0.99942   0.15995   1.000
    N13     N    0.10598   0.50058   0.16013   1.000
    N14     N    0.39411   0.99970   0.16035   1.000
    N15     N    0.39412   0.50038   0.16023   1.000
    N16     N    0.00059   0.39392   0.66110   1.000
    N17     N    0.00064   0.89414   0.66090   1.000
    N18     N    0.50081   0.39389   0.66126   1.000
    N19     N    0.49928   0.89405   0.66089   1.000
    N20     N    0.00067   0.10617   0.66124   1.000
    N21     N    0.00075   0.60603   0.66087   1.000
    N22     N    0.50096   0.10613   0.66115   1.000
    N23     N    0.49940   0.60595   0.66095   1.000
