# CIF file generated by openbabel 2.4.90, see http://openbabel.sf.net
data_I
_chemical_name_common ''
_cell_length_a 13.637
_cell_length_b 13.618
_cell_length_c 16.926
_cell_angle_alpha 90.002
_cell_angle_beta 90.005
_cell_angle_gamma 117.781
_space_group_name_H-M_alt 'P 1'
_space_group_name_Hall 'P 1'
loop_
    _symmetry_equiv_pos_as_xyz
    x,y,z
loop_
    _atom_site_label
    _atom_site_type_symbol
    _atom_site_fract_x
    _atom_site_fract_y
    _atom_site_fract_z
    _atom_site_occupancy
    N0      N    0.50665   0.73786   0.23795   1.000
    N1      N    0.49968   0.00005   0.99995   1.000
    N2      N    0.50665   0.23786   0.26203   1.000
    N3      N    0.49968   0.50005   0.49970   1.000
    N4      N    0.49260   0.76212   0.73792   1.000
    N5      N    0.49257   0.26210   0.76197   1.000
    Zr6     Zr   0.99971   0.49997   0.99980   1.000
    O7      O    0.15506   0.57690   0.07021   1.000
    O8      O    0.13715   0.46545   0.07632   1.000
    O9      O    0.15197   0.58415   0.92360   1.000
    O10     O    0.16572   0.67069   0.99989   1.000
    O11     O    0.13415   0.47241   0.93032   1.000
    O12     O    0.84409   0.42304   0.92996   1.000
    O13     O    0.83368   0.32931   0.99922   1.000
    O14     O    0.84757   0.41577   0.07656   1.000
    O15     O    0.86208   0.53462   0.92353   1.000
    O16     O    0.86514   0.52742   0.06966   1.000
    Zr17    Zr   0.99971   0.99997   0.49859   1.000
    O18     O    0.84757   0.91577   0.42262   1.000
    O19     O    0.86207   0.03461   0.57563   1.000
    O20     O    0.86514   0.02741   0.42953   1.000
    O21     O    0.83368   0.82931   0.49988   1.000
    O22     O    0.84410   0.92305   0.56921   1.000
    O23     O    0.13715   0.96544   0.42247   1.000
    O24     O    0.15506   0.07690   0.42858   1.000
    O25     O    0.16572   0.17067   0.49804   1.000
    O26     O    0.13416   0.97241   0.56845   1.000
    O27     O    0.15196   0.08414   0.57516   1.000
loop_
    _geom_bond_atom_site_label_1
    _geom_bond_atom_site_label_2
    _geom_bond_distance
    _geom_bond_site_symmetry_2
    _ccdc_geom_bond_type
    Zr6    O7        2.22185  1_656   S
    N0     O7        5.10435      .   S
    Zr6    O8        2.49647  1_656   S
    N2     O8        7.70926      .   S
    Zr6    O9        2.25176  1_655   S
    N4     O9        5.18050      .   S
    Zr6    O10       2.37142  1_655   S
    N1     O10       4.67088  1_545   S
    Zr6    O11       2.35099  1_655   S
    N5     O11       7.29819      .   S
    Zr6    O12       2.21931      .   S
    N5     O12       5.10597      .   S
    Zr6    O13       2.37115      .   S
    N1     O13       4.67047      .   S
    Zr6    O14       2.25613  1_556   S
    N2     O14       5.18099      .   S
    Zr6    O15       2.49734      .   S
    N4     O15       7.70742      .   S
    Zr6    O16       2.35473  1_556   S
    N0     O16       7.29990      .   S
    Zr17   O18       2.24823      .   S
    N0     O18       5.17211      .   S
    Zr17   O19       2.50441  1_565   S
    N5     O19       7.71282      .   S
    Zr17   O20       2.34786  1_565   S
    N2     O20       7.29451      .   S
    Zr17   O21       2.37120      .   S
    N3     O21       4.67047      .   S
    Zr17   O22       2.22652      .   S
    N4     O22       5.11318      .   S
    Zr17   O23       2.49317  1_655   S
    N0     O23       7.70132      .   S
    Zr17   O24       2.21849  1_665   S
    N2     O24       5.09367      .   S
    Zr17   O25       2.37141  1_665   S
    N3     O25       4.67100      .   S
    Zr17   O26       2.35411  1_655   S
    N4     O26       7.30545      .   S
    Zr17   O27       2.25510  1_665   S
    N5     O27       5.19135      .   S
