# CIF file generated by openbabel 2.4.90, see http://openbabel.sf.net
data_I
_chemical_name_common ''
_cell_length_a 13.217
_cell_length_b 14.829
_cell_length_c 21.942
_cell_angle_alpha 89.925
_cell_angle_beta 90.037
_cell_angle_gamma 90.032
_space_group_name_H-M_alt 'P 1'
_space_group_name_Hall 'P 1'
loop_
    _symmetry_equiv_pos_as_xyz
    x,y,z
loop_
    _atom_site_label
    _atom_site_type_symbol
    _atom_site_fract_x
    _atom_site_fract_y
    _atom_site_fract_z
    _atom_site_occupancy
    Zn0     Zn   0.91974   0.48460   0.80251   1.000
    Zn1     Zn   0.33317   0.51550   0.30120   1.000
    Zn2     Zn   0.83114   0.51545   0.30104   1.000
    Zn3     Zn   0.08054   0.98458   0.69869   1.000
    Zn4     Zn   0.58280   0.98453   0.69875   1.000
    Zn5     Zn   0.16854   0.01516   0.19747   1.000
    Zn6     Zn   0.66712   0.01558   0.19784   1.000
    Zn7     Zn   0.41713   0.48460   0.80045   1.000
