# CIF file generated by openbabel 2.4.90, see http://openbabel.sf.net
data_I
_chemical_name_common ''
_cell_length_a 13.217
_cell_length_b 14.829
_cell_length_c 21.942
_cell_angle_alpha 89.925
_cell_angle_beta 90.037
_cell_angle_gamma 90.032
_space_group_name_H-M_alt 'P 1'
_space_group_name_Hall 'P 1'
loop_
    _symmetry_equiv_pos_as_xyz
    x,y,z
loop_
    _atom_site_label
    _atom_site_type_symbol
    _atom_site_fract_x
    _atom_site_fract_y
    _atom_site_fract_z
    _atom_site_occupancy
    C0      C    0.41713   0.48460   0.80045   1.000
    C1      C    0.91974   0.48460   0.80251   1.000
    C2      C    0.33317   0.51550   0.30120   1.000
    C3      C    0.83114   0.51545   0.30104   1.000
    C4      C    0.08054   0.98458   0.69869   1.000
    C5      C    0.58280   0.98453   0.69875   1.000
    C6      C    0.16854   0.01516   0.19747   1.000
    C7      C    0.66712   0.01558   0.19784   1.000
    C8      C    0.09412   0.39708   0.71693   1.000
    C9      C    0.58999   0.39646   0.71390   1.000
    C10     C    0.45459   0.30136   0.87564   1.000
    C11     C    0.95399   0.29977   0.87657   1.000
    C12     C    0.08799   0.16942   0.83422   1.000
    C13     C    0.59095   0.17217   0.83420   1.000
    C14     C    0.17956   0.24426   0.68033   1.000
    C15     C    0.67996   0.24580   0.67908   1.000
    C16     C    0.17997   0.15267   0.73213   1.000
    C17     C    0.68042   0.15415   0.73082   1.000
    C18     C    0.31269   0.32304   0.74306   1.000
    C19     C    0.81246   0.32498   0.74200   1.000
    C20     C    0.30734   0.23730   0.79818   1.000
    C21     C    0.80668   0.23964   0.79739   1.000
    C22     C    0.40569   0.09039   0.77886   1.000
    C23     C    0.90203   0.09059   0.77774   1.000
    C24     C    0.39010   0.27996   0.63432   1.000
    C25     C    0.89391   0.28306   0.63476   1.000
    C26     C    0.03072   0.14537   0.60605   1.000
    C27     C    0.52867   0.14379   0.60546   1.000
    C28     C    0.03487   0.48259   0.14156   1.000
    C29     C    0.53651   0.48151   0.14145   1.000
    C30     C    0.47032   0.57060   0.10662   1.000
    C31     C    0.96808   0.57115   0.10651   1.000
    C32     C    0.42156   0.37024   0.08600   1.000
    C33     C    0.92127   0.37043   0.08587   1.000
    C34     C    0.35604   0.46186   0.05369   1.000
    C35     C    0.85545   0.46159   0.05319   1.000
    C36     C    0.01797   0.50937   0.00020   1.000
    C37     C    0.51840   0.50876   0.00020   1.000
    C38     C    0.47186   0.40251   0.97836   1.000
    C39     C    0.97249   0.40276   0.97841   1.000
    C40     C    0.14953   0.43799   0.06633   1.000
    C41     C    0.64975   0.43638   0.06591   1.000
    C42     C    0.09324   0.33122   0.05572   1.000
    C43     C    0.59277   0.32992   0.05510   1.000
    C44     C    0.13906   0.33337   0.94535   1.000
    C45     C    0.63824   0.33237   0.94470   1.000
    C46     C    0.24503   0.34173   0.99335   1.000
    C47     C    0.74461   0.34082   0.99243   1.000
    C48     C    0.14518   0.49888   0.92419   1.000
    C49     C    0.64379   0.49752   0.92333   1.000
    C50     C    0.24621   0.51237   0.97542   1.000
    C51     C    0.74392   0.51195   0.97505   1.000
    C52     C    0.16009   0.60392   0.21440   1.000
    C53     C    0.65914   0.60490   0.21445   1.000
    C54     C    0.29557   0.69877   0.37609   1.000
    C55     C    0.79451   0.69844   0.37652   1.000
    C56     C    0.15901   0.82791   0.33452   1.000
    C57     C    0.65905   0.82848   0.33498   1.000
    C58     C    0.07035   0.75473   0.17930   1.000
    C59     C    0.57119   0.75750   0.17944   1.000
    C60     C    0.07019   0.84639   0.23094   1.000
    C61     C    0.56873   0.84749   0.23231   1.000
    C62     C    0.43852   0.67517   0.24040   1.000
    C63     C    0.93714   0.67622   0.24212   1.000
    C64     C    0.44210   0.75905   0.29678   1.000
    C65     C    0.94312   0.76166   0.29727   1.000
    C66     C    0.34545   0.90804   0.27758   1.000
    C67     C    0.84458   0.90866   0.27834   1.000
    C68     C    0.35882   0.71886   0.13306   1.000
    C69     C    0.85980   0.72042   0.13334   1.000
    C70     C    0.22147   0.85626   0.10422   1.000
    C71     C    0.72125   0.85693   0.10480   1.000
    C72     C    0.21057   0.51934   0.64192   1.000
    C73     C    0.71638   0.51781   0.64266   1.000
    C74     C    0.27647   0.42998   0.60746   1.000
    C75     C    0.78239   0.42849   0.60818   1.000
    C76     C    0.32614   0.63015   0.58643   1.000
    C77     C    0.83055   0.62871   0.58612   1.000
    C78     C    0.39152   0.53828   0.55453   1.000
    C79     C    0.89552   0.53683   0.55399   1.000
    C80     C    0.22929   0.49163   0.50082   1.000
    C81     C    0.73258   0.48947   0.50140   1.000
    C82     C    0.27621   0.59774   0.47870   1.000
    C83     C    0.77837   0.59578   0.47900   1.000
    C84     C    0.09797   0.56460   0.56610   1.000
    C85     C    0.60152   0.56155   0.56720   1.000
    C86     C    0.15506   0.67092   0.55476   1.000
    C87     C    0.65828   0.66811   0.55628   1.000
    C88     C    0.10982   0.66762   0.44439   1.000
    C89     C    0.61215   0.66588   0.44595   1.000
    C90     C    0.00333   0.65955   0.49192   1.000
    C91     C    0.50630   0.65809   0.49398   1.000
    C92     C    0.10443   0.50208   0.42411   1.000
    C93     C    0.60503   0.50010   0.42542   1.000
    C94     C    0.00323   0.48855   0.47516   1.000
    C95     C    0.50358   0.48762   0.47640   1.000
    C96     C    0.41135   0.89536   0.78556   1.000
    C97     C    0.90811   0.89527   0.78490   1.000
    C98     C    0.04518   0.80106   0.62368   1.000
    C99     C    0.54459   0.80169   0.62303   1.000
    C100    C    0.40803   0.67240   0.66452   1.000
    C101    C    0.91022   0.67061   0.66534   1.000
    C102    C    0.32174   0.74371   0.82034   1.000
    C103    C    0.82137   0.74138   0.82027   1.000
    C104    C    0.31900   0.65343   0.76770   1.000
    C105    C    0.81830   0.65200   0.76696   1.000
    C106    C    0.18866   0.82554   0.75942   1.000
    C107    C    0.68868   0.82471   0.75998   1.000
    C108    C    0.19226   0.74173   0.70305   1.000
    C109    C    0.69201   0.74193   0.70292   1.000
    C110    C    0.09668   0.59197   0.72200   1.000
    C111    C    0.59362   0.59357   0.72037   1.000
    C112    C    0.10836   0.78216   0.86647   1.000
    C113    C    0.61010   0.77835   0.86730   1.000
    C114    C    0.47125   0.64129   0.89456   1.000
    C115    C    0.97133   0.64447   0.89529   1.000
    C116    C    0.46381   0.98101   0.35766   1.000
    C117    C    0.96561   0.98055   0.35740   1.000
    C118    C    0.03185   0.07016   0.39154   1.000
    C119    C    0.52887   0.07160   0.39130   1.000
    C120    C    0.07973   0.87005   0.41400   1.000
    C121    C    0.57957   0.87226   0.41478   1.000
    C122    C    0.14581   0.96196   0.44546   1.000
    C123    C    0.64405   0.96522   0.44599   1.000
    C124    C    0.48157   0.00000   0.49882   1.000
    C125    C    0.98434   0.00000   0.49886   1.000
    C126    C    0.02917   0.90352   0.52109   1.000
    C127    C    0.52787   0.90621   0.52166   1.000
    C128    C    0.35010   0.93931   0.43386   1.000
    C129    C    0.85149   0.93950   0.43376   1.000
    C130    C    0.40730   0.83299   0.44467   1.000
    C131    C    0.90726   0.83247   0.44402   1.000
    C132    C    0.36234   0.83508   0.55509   1.000
    C133    C    0.86279   0.83405   0.55454   1.000
    C134    C    0.25595   0.84261   0.50740   1.000
    C135    C    0.75635   0.84308   0.50701   1.000
    C136    C    0.35479   0.00000   0.57620   1.000
    C137    C    0.85737   0.99925   0.57640   1.000
    C138    C    0.25393   0.00000   0.52488   1.000
    C139    C    0.75652   0.00000   0.52517   1.000
    C140    C    0.34157   0.10412   0.28372   1.000
    C141    C    0.84044   0.10356   0.28448   1.000
    C142    C    0.20297   0.19935   0.12295   1.000
    C143    C    0.70436   0.19961   0.12317   1.000
    C144    C    0.33806   0.32960   0.16444   1.000
    C145    C    0.84021   0.32893   0.16510   1.000
    C146    C    0.42825   0.25744   0.31916   1.000
    C147    C    0.92919   0.25492   0.32009   1.000
    C148    C    0.43046   0.34757   0.26624   1.000
    C149    C    0.92982   0.34659   0.26837   1.000
    C150    C    0.06250   0.17627   0.25750   1.000
    C151    C    0.56090   0.17556   0.25795   1.000
    C152    C    0.05685   0.26166   0.20228   1.000
    C153    C    0.55716   0.25981   0.20175   1.000
    C154    C    0.15487   0.40906   0.22124   1.000
    C155    C    0.65439   0.40831   0.22077   1.000
    C156    C    0.14080   0.21984   0.36603   1.000
    C157    C    0.64002   0.21923   0.36564   1.000
    C158    C    0.27958   0.35629   0.39435   1.000
    C159    C    0.77795   0.35627   0.39427   1.000
    C160    C    0.28366   0.01686   0.85873   1.000
    C161    C    0.78566   0.01740   0.85902   1.000
    C162    C    0.21607   0.92890   0.89400   1.000
    C163    C    0.71723   0.93044   0.89487   1.000
    C164    C    0.17008   0.12993   0.91362   1.000
    C165    C    0.67270   0.13211   0.91259   1.000
    C166    C    0.10404   0.03914   0.94666   1.000
    C167    C    0.60507   0.04243   0.94580   1.000
    C168    C    0.26664   0.99177   0.99981   1.000
    C169    C    0.76657   0.99460   0.00000   1.000
    C170    C    0.22109   0.09839   0.02136   1.000
    C171    C    0.72130   0.10176   0.02093   1.000
    C172    C    0.39785   0.06323   0.93337   1.000
    C173    C    0.89888   0.06497   0.93383   1.000
    C174    C    0.34174   0.16997   0.94420   1.000
    C175    C    0.84360   0.17208   0.94457   1.000
    C176    C    0.38814   0.16729   0.05456   1.000
    C177    C    0.88923   0.16890   0.05510   1.000
    C178    C    0.49390   0.15902   0.00648   1.000
    C179    C    0.99521   0.15999   0.00720   1.000
    C180    C    0.39367   0.00155   0.07516   1.000
    C181    C    0.89305   0.00336   0.07567   1.000
    C182    C    0.49465   0.98834   0.02395   1.000
    C183    C    0.99389   0.98912   0.02441   1.000
    C184    C    0.07549   0.35424   0.75536   1.000
    C185    C    0.57303   0.35442   0.75305   1.000
    C186    C    0.50568   0.30226   0.83710   1.000
    C187    C    0.00000   0.30091   0.83830   1.000
    C188    C    0.07146   0.23659   0.81783   1.000
    C189    C    0.57253   0.23852   0.81703   1.000
    C190    C    0.19143   0.22572   0.72824   1.000
    C191    C    0.69153   0.22725   0.72702   1.000
    C192    C    0.29834   0.25079   0.74938   1.000
    C193    C    0.79814   0.25274   0.74851   1.000
    C194    C    0.41928   0.12186   0.73500   1.000
    C195    C    0.91751   0.12267   0.73437   1.000
    C196    C    0.41285   0.21973   0.65869   1.000
    C197    C    0.91487   0.22202   0.65880   1.000
    C198    C    0.48100   0.15304   0.64513   1.000
    C199    C    0.98215   0.15461   0.64532   1.000
    C200    C    0.38582   0.50267   0.17565   1.000
    C201    C    0.88391   0.50276   0.17550   1.000
    C202    C    0.46210   0.50050   0.12319   1.000
    C203    C    0.96043   0.50102   0.12312   1.000
    C204    C    0.43096   0.44015   0.06974   1.000
    C205    C    0.93034   0.44038   0.06959   1.000
    C206    C    0.50651   0.43925   0.01676   1.000
    C207    C    0.00000   0.43983   0.01687   1.000
    C208    C    0.10844   0.39626   0.03286   1.000
    C209    C    0.60823   0.39503   0.03241   1.000
    C210    C    0.17722   0.37847   0.97789   1.000
    C211    C    0.67656   0.37745   0.97724   1.000
    C212    C    0.21088   0.46366   0.94409   1.000
    C213    C    0.70961   0.46289   0.94356   1.000
    C214    C    0.28359   0.44626   0.89158   1.000
    C215    C    0.78336   0.44621   0.89154   1.000
    C216    C    0.17702   0.64587   0.25350   1.000
    C217    C    0.67621   0.64665   0.25363   1.000
    C218    C    0.24446   0.69792   0.33750   1.000
    C219    C    0.74357   0.69797   0.33787   1.000
    C220    C    0.17750   0.76164   0.31738   1.000
    C221    C    0.67717   0.76216   0.31775   1.000
    C222    C    0.05869   0.77333   0.22718   1.000
    C223    C    0.55850   0.77442   0.22752   1.000
    C224    C    0.45178   0.74735   0.24785   1.000
    C225    C    0.95181   0.74841   0.24846   1.000
    C226    C    0.33135   0.87679   0.23380   1.000
    C227    C    0.83081   0.87759   0.23440   1.000
    C228    C    0.33669   0.77916   0.15743   1.000
    C229    C    0.83710   0.78041   0.15787   1.000
    C230    C    0.26916   0.84643   0.14388   1.000
    C231    C    0.76896   0.84725   0.14447   1.000
    C232    C    0.36099   0.49758   0.67652   1.000
    C233    C    0.86724   0.49716   0.67671   1.000
    C234    C    0.28497   0.50006   0.62389   1.000
    C235    C    0.79064   0.49877   0.62429   1.000
    C236    C    0.31659   0.56022   0.57035   1.000
    C237    C    0.82087   0.55865   0.57033   1.000
    C238    C    0.24127   0.56117   0.51718   1.000
    C239    C    0.74442   0.55907   0.51771   1.000
    C240    C    0.13958   0.60562   0.53243   1.000
    C241    C    0.64272   0.60307   0.53361   1.000
    C242    C    0.07140   0.62278   0.47703   1.000
    C243    C    0.57385   0.62099   0.47861   1.000
    C244    C    0.03841   0.53716   0.44364   1.000
    C245    C    0.53958   0.53593   0.44501   1.000
    C246    C    0.46732   0.55378   0.39225   1.000
    C247    C    0.96587   0.55377   0.39090   1.000
    C248    C    0.42756   0.85371   0.74622   1.000
    C249    C    0.92566   0.85328   0.74594   1.000
    C250    C    0.99389   0.80156   0.66212   1.000
    C251    C    0.49387   0.80230   0.66170   1.000
    C252    C    0.42691   0.73851   0.68185   1.000
    C253    C    0.92774   0.73720   0.68231   1.000
    C254    C    0.30885   0.72652   0.77232   1.000
    C255    C    0.80840   0.72504   0.77210   1.000
    C256    C    0.20204   0.75339   0.75199   1.000
    C257    C    0.70174   0.75264   0.75197   1.000
    C258    C    0.08212   0.62346   0.76612   1.000
    C259    C    0.58009   0.62365   0.76457   1.000
    C260    C    0.08661   0.72161   0.84221   1.000
    C261    C    0.58701   0.71901   0.84219   1.000
    C262    C    0.01922   0.65418   0.85574   1.000
    C263    C    0.51879   0.65193   0.85490   1.000
    C264    C    0.11632   0.00000   0.32309   1.000
    C265    C    0.61423   0.00000   0.32325   1.000
    C266    C    0.03997   0.99983   0.37556   1.000
    C267    C    0.53796   0.00000   0.37570   1.000
    C268    C    0.07076   0.94028   0.42959   1.000
    C269    C    0.56941   0.94251   0.43007   1.000
    C270    C    0.99513   0.94054   0.48256   1.000
    C271    C    0.49349   0.94240   0.48289   1.000
    C272    C    0.39178   0.89800   0.46735   1.000
    C273    C    0.89274   0.89743   0.46701   1.000
    C274    C    0.32359   0.87988   0.52255   1.000
    C275    C    0.82451   0.87952   0.52220   1.000
    C276    C    0.28946   0.96479   0.55627   1.000
    C277    C    0.79153   0.96447   0.55632   1.000
    C278    C    0.21638   0.94668   0.60852   1.000
    C279    C    0.71841   0.94653   0.60857   1.000
    C280    C    0.32357   0.14638   0.24488   1.000
    C281    C    0.82328   0.14587   0.24553   1.000
    C282    C    0.25447   0.19859   0.16133   1.000
    C283    C    0.75548   0.19852   0.16174   1.000
    C284    C    0.32080   0.26287   0.18139   1.000
    C285    C    0.82216   0.26235   0.18204   1.000
    C286    C    0.44078   0.27452   0.27100   1.000
    C287    C    0.94112   0.27352   0.27220   1.000
    C288    C    0.04802   0.24847   0.25112   1.000
    C289    C    0.54751   0.24776   0.25067   1.000
    C290    C    0.16899   0.37772   0.26503   1.000
    C291    C    0.66828   0.37705   0.26462   1.000
    C292    C    0.16329   0.28003   0.34151   1.000
    C293    C    0.66245   0.27947   0.34116   1.000
    C294    C    0.23157   0.34683   0.35480   1.000
    C295    C    0.73026   0.34657   0.35461   1.000
    C296    C    0.13266   0.99712   0.82454   1.000
    C297    C    0.63470   0.99757   0.82459   1.000
    C298    C    0.20900   0.99891   0.87706   1.000
    C299    C    0.71074   0.00011   0.87725   1.000
    C300    C    0.17898   0.06016   0.93025   1.000
    C301    C    0.68052   0.06254   0.92979   1.000
    C302    C    0.25510   0.06117   0.98301   1.000
    C303    C    0.75573   0.06386   0.98302   1.000
    C304    C    0.35697   0.10484   0.96695   1.000
    C305    C    0.85811   0.10684   0.96731   1.000
    C306    C    0.42603   0.12231   0.02189   1.000
    C307    C    0.92691   0.12375   0.02245   1.000
    C308    C    0.45946   0.03685   0.05540   1.000
    C309    C    0.95934   0.03791   0.05590   1.000
    C310    C    0.03218   0.05407   0.10855   1.000
    C311    C    0.53222   0.05377   0.10800   1.000
    C312    C    0.00846   0.37393   0.79884   1.000
    C313    C    0.50626   0.37417   0.79666   1.000
    C314    C    0.11474   0.27080   0.76510   1.000
    C315    C    0.61429   0.27198   0.76364   1.000
    C316    C    0.37444   0.19931   0.71592   1.000
    C317    C    0.87459   0.20110   0.71548   1.000
    C318    C    0.48472   0.09253   0.69333   1.000
    C319    C    0.98350   0.09317   0.69303   1.000
    C320    C    0.24389   0.62606   0.29714   1.000
    C321    C    0.74266   0.62630   0.29736   1.000
    C322    C    0.13568   0.72827   0.26401   1.000
    C323    C    0.63547   0.72925   0.26421   1.000
    C324    C    0.37537   0.79905   0.21467   1.000
    C325    C    0.87563   0.80029   0.21516   1.000
    C326    C    0.26617   0.90679   0.19207   1.000
    C327    C    0.76532   0.90733   0.19281   1.000
    C328    C    0.49397   0.87379   0.70242   1.000
    C329    C    0.99232   0.87359   0.70234   1.000
    C330    C    0.38583   0.77149   0.73550   1.000
    C331    C    0.88544   0.77037   0.73556   1.000
    C332    C    0.12576   0.70149   0.78515   1.000
    C333    C    0.62513   0.70047   0.78463   1.000
    C334    C    0.01673   0.59349   0.80772   1.000
    C335    C    0.51478   0.59300   0.80599   1.000
    C336    C    0.25650   0.12630   0.20145   1.000
    C337    C    0.75645   0.12622   0.20186   1.000
    C338    C    0.36365   0.22937   0.23448   1.000
    C339    C    0.86419   0.22860   0.23529   1.000
    C340    C    0.12428   0.30026   0.28437   1.000
    C341    C    0.62387   0.29943   0.28387   1.000
    C342    C    0.23485   0.40722   0.30653   1.000
    C343    C    0.73358   0.40690   0.30630   1.000
    C344    C    0.42671   0.50790   0.22974   1.000
    C345    C    0.92469   0.50786   0.22960   1.000
    C346    C    0.29279   0.50013   0.16550   1.000
    C347    C    0.79088   0.50010   0.16539   1.000
    C348    C    0.33766   0.51560   0.87451   1.000
    C349    C    0.83633   0.51626   0.87460   1.000
    C350    C    0.28896   0.37067   0.86671   1.000
    C351    C    0.79085   0.37056   0.86695   1.000
    C352    C    0.32013   0.49219   0.73057   1.000
    C353    C    0.82647   0.49210   0.73078   1.000
    C354    C    0.45412   0.50003   0.66674   1.000
    C355    C    0.96025   0.49995   0.66667   1.000
    C356    C    0.41381   0.48439   0.37460   1.000
    C357    C    0.91212   0.48408   0.37416   1.000
    C358    C    0.46179   0.62970   0.36779   1.000
    C359    C    0.96012   0.62908   0.36555   1.000
    C360    C    0.07536   0.00000   0.26896   1.000
    C361    C    0.57325   0.00000   0.26910   1.000
    C362    C    0.20936   0.00000   0.33320   1.000
    C363    C    0.70727   0.00000   0.33322   1.000
    C364    C    0.16404   0.01636   0.62660   1.000
    C365    C    0.66616   0.01629   0.62668   1.000
    C366    C    0.20894   0.87024   0.63206   1.000
    C367    C    0.71091   0.87011   0.63215   1.000
    C368    C    0.17356   0.99203   0.77050   1.000
    C369    C    0.67576   0.99216   0.77060   1.000
    C370    C    0.03963   0.99979   0.83450   1.000
    C371    C    0.54162   0.99990   0.83447   1.000
    C372    C    0.08839   0.98507   0.12363   1.000
    C373    C    0.58613   0.98422   0.12480   1.000
    C374    C    0.03583   0.12831   0.13535   1.000
    C375    C    0.53793   0.12914   0.13316   1.000
    O376    O    0.76115   0.02923   0.99151   1.000
    O377    O    0.00899   0.47460   0.00854   1.000
    O378    O    0.51246   0.47401   0.00848   1.000
    O379    O    0.45996   0.14066   0.01419   1.000
    O380    O    0.96106   0.14187   0.01483   1.000
    O381    O    0.55737   0.41714   0.02459   1.000
    O382    O    0.46873   0.43970   0.04325   1.000
    O383    O    0.48918   0.42088   0.99756   1.000
    O384    O    0.05422   0.41805   0.02487   1.000
    O385    O    0.96517   0.44010   0.04323   1.000
    O386    O    0.98624   0.42130   0.99764   1.000
    O387    O    0.73852   0.08281   0.00198   1.000
    O388    O    0.23809   0.07978   0.00219   1.000
    O389    O    0.40708   0.14480   0.03823   1.000
    O390    O    0.44274   0.07958   0.03865   1.000
    O391    O    0.39150   0.11358   0.99442   1.000
    O392    O    0.90807   0.14633   0.03878   1.000
    O393    O    0.94312   0.08083   0.03918   1.000
    O394    O    0.89251   0.11530   0.99488   1.000
    O395    O    0.47706   0.01259   0.03968   1.000
    O396    O    0.97661   0.01352   0.04016   1.000
    O397    O    0.60050   0.36248   0.04376   1.000
    O398    O    0.62899   0.41571   0.04916   1.000
    O399    O    0.64239   0.38624   0.00483   1.000
    O400    O    0.10084   0.36374   0.04429   1.000
    O401    O    0.12898   0.41713   0.04960   1.000
    O402    O    0.14283   0.38737   0.00538   1.000
    O403    O    0.89289   0.45099   0.06139   1.000
    O404    O    0.39350   0.45101   0.06172   1.000
    O405    O    0.42657   0.01920   0.06528   1.000
    O406    O    0.49584   0.04531   0.08170   1.000
    O407    O    0.92619   0.02064   0.06579   1.000
    O408    O    0.99576   0.04599   0.08223   1.000
    O409    O    0.92581   0.40540   0.07773   1.000
    O410    O    0.94539   0.47070   0.09636   1.000
    O411    O    0.42626   0.40519   0.07787   1.000
    O412    O    0.44653   0.47032   0.09647   1.000
    O413    O    0.24532   0.85134   0.12405   1.000
    O414    O    0.74511   0.85209   0.12464   1.000
    O415    O    0.96425   0.53608   0.11482   1.000
    O416    O    0.46621   0.53555   0.11491   1.000
    O417    O    0.55917   0.01899   0.11640   1.000
    O418    O    0.53507   0.09145   0.12058   1.000
    O419    O    0.06029   0.01957   0.11609   1.000
    O420    O    0.03401   0.09119   0.12195   1.000
    O421    O    0.22872   0.19897   0.14214   1.000
    O422    O    0.99765   0.49181   0.13234   1.000
    O423    O    0.92217   0.50189   0.14931   1.000
    O424    O    0.72992   0.19907   0.14246   1.000
    O425    O    0.49930   0.49100   0.13232   1.000
    O426    O    0.42396   0.50158   0.14942   1.000
    O427    O    0.12847   0.00012   0.16055   1.000
    O428    O    0.62662   0.99990   0.16132   1.000
    O429    O    0.34775   0.74901   0.14525   1.000
    O430    O    0.84845   0.75042   0.14561   1.000
    O431    O    0.30292   0.81280   0.15066   1.000
    O432    O    0.26766   0.87661   0.16798   1.000
    O433    O    0.80303   0.81383   0.15117   1.000
    O434    O    0.76714   0.87729   0.16864   1.000
    O435    O    0.35603   0.78911   0.18605   1.000
    O436    O    0.85637   0.79035   0.18652   1.000
    O437    O    0.28764   0.23072   0.17136   1.000
    O438    O    0.25549   0.16244   0.18139   1.000
    O439    O    0.78882   0.23044   0.17189   1.000
    O440    O    0.75596   0.16237   0.18180   1.000
    O441    O    0.32943   0.29623   0.17292   1.000
    O442    O    0.83118   0.29564   0.17357   1.000
    O443    O    0.83740   0.50143   0.17045   1.000
    O444    O    0.33931   0.50140   0.17058   1.000
    O445    O    0.90430   0.50531   0.20255   1.000
    O446    O    0.40627   0.50528   0.20270   1.000
    O447    O    0.06452   0.76403   0.20324   1.000
    O448    O    0.56484   0.76596   0.20348   1.000
    O449    O    0.34223   0.24612   0.20794   1.000
    O450    O    0.84318   0.24547   0.20867   1.000
    O451    O    0.21736   0.96098   0.19477   1.000
    O452    O    0.29876   0.89179   0.21294   1.000
    O453    O    0.71622   0.96145   0.19533   1.000
    O454    O    0.79807   0.89246   0.21361   1.000
    O455    O    0.21252   0.07073   0.19946   1.000
    O456    O    0.12195   0.00758   0.23322   1.000
    O457    O    0.71178   0.07090   0.19985   1.000
    O458    O    0.62019   0.00779   0.23347   1.000
    O459    O    0.29003   0.13634   0.22317   1.000
    O460    O    0.55234   0.25379   0.22621   1.000
    O461    O    0.78986   0.13605   0.22370   1.000
    O462    O    0.05243   0.25507   0.22670   1.000
    O463    O    0.16855   0.62489   0.23395   1.000
    O464    O    0.66768   0.62578   0.23404   1.000
    O465    O    0.35336   0.83792   0.22424   1.000
    O466    O    0.41358   0.77320   0.23126   1.000
    O467    O    0.85322   0.83894   0.22478   1.000
    O468    O    0.91372   0.77435   0.23181   1.000
    O469    O    0.66134   0.39268   0.24270   1.000
    O470    O    0.16193   0.39339   0.24314   1.000
    O471    O    0.06444   0.80986   0.22906   1.000
    O472    O    0.00525   0.76087   0.23782   1.000
    O473    O    0.09718   0.75080   0.24560   1.000
    O474    O    0.56361   0.81096   0.22992   1.000
    O475    O    0.50514   0.76089   0.23769   1.000
    O476    O    0.59698   0.75184   0.24587   1.000
    O477    O    0.87792   0.51165   0.26532   1.000
    O478    O    0.37994   0.51170   0.26547   1.000
    O479    O    0.33840   0.89242   0.25569   1.000
    O480    O    0.83769   0.89312   0.25637   1.000
    O481    O    0.34361   0.18787   0.23968   1.000
    O482    O    0.40222   0.25194   0.25274   1.000
    O483    O    0.84374   0.18723   0.24041   1.000
    O484    O    0.90265   0.25106   0.25375   1.000
    O485    O    0.44515   0.71126   0.24413   1.000
    O486    O    0.94448   0.71231   0.24529   1.000
    O487    O    0.33257   0.12525   0.26430   1.000
    O488    O    0.83186   0.12472   0.26501   1.000
    O489    O    0.44694   0.75320   0.27232   1.000
    O490    O    0.94747   0.75503   0.27287   1.000
    O491    O    0.55421   0.21166   0.25431   1.000
    O492    O    0.49415   0.26114   0.26084   1.000
    O493    O    0.58569   0.27360   0.26727   1.000
    O494    O    0.05526   0.21237   0.25431   1.000
    O495    O    0.99457   0.26099   0.26166   1.000
    O496    O    0.08615   0.27437   0.26775   1.000
    O497    O    0.15635   0.68707   0.25876   1.000
    O498    O    0.21045   0.63597   0.27532   1.000
    O499    O    0.65584   0.68795   0.25892   1.000
    O500    O    0.70944   0.63648   0.27550   1.000
    O501    O    0.15659   0.74495   0.29070   1.000
    O502    O    0.65632   0.74571   0.29098   1.000
    O503    O    0.64608   0.33824   0.27425   1.000
    O504    O    0.70093   0.39197   0.28546   1.000
    O505    O    0.14664   0.33899   0.27470   1.000
    O506    O    0.20192   0.39247   0.28578   1.000
    O507    O    0.43562   0.31105   0.26862   1.000
    O508    O    0.93547   0.31005   0.27029   1.000
    O509    O    0.09584   0.00000   0.29603   1.000
    O510    O    0.59374   0.00000   0.29618   1.000
    O511    O    0.43452   0.26598   0.29508   1.000
    O512    O    0.93515   0.26422   0.29615   1.000
    O513    O    0.64316   0.28945   0.31252   1.000
    O514    O    0.14378   0.29015   0.31294   1.000
    O515    O    0.28853   0.57078   0.29917   1.000
    O516    O    0.24418   0.66199   0.31732   1.000
    O517    O    0.78690   0.57087   0.29920   1.000
    O518    O    0.74312   0.66214   0.31762   1.000
    O519    O    0.78236   0.46117   0.30367   1.000
    O520    O    0.87163   0.49977   0.33760   1.000
    O521    O    0.28401   0.46136   0.30387   1.000
    O522    O    0.37349   0.49994   0.33790   1.000
    O523    O    0.73192   0.37673   0.33046   1.000
    O524    O    0.23321   0.37702   0.33067   1.000
    O525    O    0.16826   0.79477   0.32595   1.000
    O526    O    0.21098   0.72978   0.32744   1.000
    O527    O    0.66811   0.79532   0.32637   1.000
    O528    O    0.71037   0.73007   0.32781   1.000
    O529    O    0.16284   0.00000   0.32815   1.000
    O530    O    0.07814   0.99991   0.34933   1.000
    O531    O    0.66075   0.00000   0.32824   1.000
    O532    O    0.57610   0.00000   0.34948   1.000
    O533    O    0.27002   0.69835   0.35680   1.000
    O534    O    0.76904   0.69821   0.35720   1.000
    O535    O    0.69635   0.31302   0.34789   1.000
    O536    O    0.65123   0.24935   0.35340   1.000
    O537    O    0.19743   0.31343   0.34816   1.000
    O538    O    0.15205   0.24993   0.35377   1.000
    O539    O    0.75410   0.35142   0.37444   1.000
    O540    O    0.25557   0.35156   0.37458   1.000
    O541    O    0.00279   0.99019   0.36648   1.000
    O542    O    0.50088   0.99050   0.36668   1.000
    O543    O    0.96299   0.59143   0.37823   1.000
    O544    O    0.46455   0.59174   0.38002   1.000
    O545    O    0.93899   0.51893   0.38253   1.000
    O546    O    0.44056   0.51908   0.38343   1.000
    O547    O    0.03591   0.03499   0.38355   1.000
    O548    O    0.05536   0.97005   0.40258   1.000
    O549    O    0.53341   0.03580   0.38350   1.000
    O550    O    0.55369   0.97126   0.40289   1.000
    O551    O    0.00214   0.54546   0.41727   1.000
    O552    O    0.50345   0.54485   0.41863   1.000
    O553    O    0.07525   0.90517   0.42180   1.000
    O554    O    0.57449   0.90739   0.42243   1.000
    O555    O    0.07142   0.51962   0.43388   1.000
    O556    O    0.57231   0.51802   0.43522   1.000
    O557    O    0.10828   0.95112   0.43753   1.000
    O558    O    0.03294   0.94041   0.45608   1.000
    O559    O    0.60673   0.95386   0.43803   1.000
    O560    O    0.53145   0.94246   0.45648   1.000
    O561    O    0.87211   0.91846   0.45039   1.000
    O562    O    0.37094   0.91865   0.45061   1.000
    O563    O    0.02082   0.51285   0.45940   1.000
    O564    O    0.05491   0.57997   0.46034   1.000
    O565    O    0.90000   0.86495   0.45552   1.000
    O566    O    0.09061   0.64520   0.46071   1.000
    O567    O    0.39954   0.86549   0.45601   1.000
    O568    O    0.52158   0.51177   0.46071   1.000
    O569    O    0.55671   0.57846   0.46181   1.000
    O570    O    0.59300   0.64344   0.46228   1.000
    O571    O    0.94393   0.91898   0.47479   1.000
    O572    O    0.85863   0.88847   0.49461   1.000
    O573    O    0.44263   0.92020   0.47512   1.000
    O574    O    0.35768   0.88894   0.49495   1.000
    O575    O    0.03737   0.64117   0.48448   1.000
    O576    O    0.10549   0.61420   0.50473   1.000
    O577    O    0.54007   0.63954   0.48630   1.000
    O578    O    0.60829   0.61203   0.50611   1.000
    O579    O    0.25874   0.57945   0.49794   1.000
    O580    O    0.76140   0.57743   0.49836   1.000
    O581    O    0.98973   0.97027   0.49071   1.000
    O582    O    0.01215   0.92203   0.50183   1.000
    O583    O    0.48753   0.97120   0.49086   1.000
    O584    O    0.51068   0.92431   0.50228   1.000
    O585    O    0.23528   0.52640   0.50900   1.000
    O586    O    0.73850   0.52427   0.50956   1.000
    O587    O    0.79043   0.86130   0.51461   1.000
    O588    O    0.28977   0.86125   0.51498   1.000
    O589    O    0.19043   0.58339   0.52481   1.000
    O590    O    0.27893   0.56069   0.54377   1.000
    O591    O    0.69357   0.58107   0.52566   1.000
    O592    O    0.78265   0.55886   0.54402   1.000
    O593    O    0.84365   0.85679   0.53837   1.000
    O594    O    0.80802   0.92200   0.53926   1.000
    O595    O    0.34296   0.85748   0.53882   1.000
    O596    O    0.30652   0.92234   0.53941   1.000
    O597    O    0.27169   0.98240   0.54058   1.000
    O598    O    0.77402   0.98224   0.54075   1.000
    O599    O    0.14732   0.63827   0.54360   1.000
    O600    O    0.11878   0.58511   0.54927   1.000
    O601    O    0.65050   0.63559   0.54495   1.000
    O602    O    0.62212   0.58231   0.55041   1.000
    O603    O    0.85820   0.54774   0.56216   1.000
    O604    O    0.35406   0.54925   0.56244   1.000
    O605    O    0.32212   0.98240   0.56624   1.000
    O606    O    0.25292   0.95574   0.58240   1.000
    O607    O    0.82445   0.98186   0.56636   1.000
    O608    O    0.75497   0.95550   0.58245   1.000
    O609    O    0.82571   0.59368   0.57823   1.000
    O610    O    0.80575   0.52871   0.59731   1.000
    O611    O    0.32137   0.59518   0.57839   1.000
    O612    O    0.30078   0.53014   0.59712   1.000
    O613    O    0.50483   0.14842   0.62530   1.000
    O614    O    0.00644   0.14999   0.62569   1.000
    O615    O    0.28072   0.46502   0.61568   1.000
    O616    O    0.78651   0.46363   0.61624   1.000
    O617    O    0.19021   0.98152   0.61756   1.000
    O618    O    0.21266   0.90846   0.62029   1.000
    O619    O    0.69229   0.98140   0.61763   1.000
    O620    O    0.71466   0.90832   0.62036   1.000
    O621    O    0.51923   0.80200   0.64237   1.000
    O622    O    0.01953   0.80131   0.64290   1.000
    O623    O    0.24777   0.50970   0.63291   1.000
    O624    O    0.32298   0.49882   0.65021   1.000
    O625    O    0.75351   0.50829   0.63348   1.000
    O626    O    0.82894   0.49796   0.65050   1.000
    O627    O    0.12229   0.00047   0.66265   1.000
    O628    O    0.62448   0.00041   0.66272   1.000
    O629    O    0.40147   0.24985   0.64651   1.000
    O630    O    0.90439   0.25254   0.64678   1.000
    O631    O    0.44692   0.18639   0.65191   1.000
    O632    O    0.48286   0.12279   0.66923   1.000
    O633    O    0.94851   0.18832   0.65206   1.000
    O634    O    0.98283   0.12389   0.66918   1.000
    O635    O    0.39364   0.20952   0.68731   1.000
    O636    O    0.89473   0.21156   0.68714   1.000
    O637    O    0.46039   0.77041   0.67178   1.000
    O638    O    0.49392   0.83804   0.68206   1.000
    O639    O    0.96081   0.76938   0.67222   1.000
    O640    O    0.99310   0.83757   0.68223   1.000
    O641    O    0.41747   0.70546   0.67319   1.000
    O642    O    0.91898   0.70390   0.67383   1.000
    O643    O    0.91375   0.49855   0.67169   1.000
    O644    O    0.40756   0.49880   0.67163   1.000
    O645    O    0.34056   0.49489   0.70355   1.000
    O646    O    0.84685   0.49463   0.70375   1.000
    O647    O    0.68575   0.23652   0.70305   1.000
    O648    O    0.18550   0.23499   0.70429   1.000
    O649    O    0.40637   0.75500   0.70868   1.000
    O650    O    0.90659   0.75379   0.70894   1.000
    O651    O    0.03202   0.03888   0.69586   1.000
    O652    O    0.95051   0.10792   0.71370   1.000
    O653    O    0.53376   0.03853   0.69604   1.000
    O654    O    0.45200   0.10719   0.71417   1.000
    O655    O    0.03643   0.92909   0.70052   1.000
    O656    O    0.12705   0.98830   0.73460   1.000
    O657    O    0.53838   0.92916   0.70059   1.000
    O658    O    0.62928   0.98835   0.73468   1.000
    O659    O    0.95899   0.86344   0.72414   1.000
    O660    O    0.46077   0.86375   0.72432   1.000
    O661    O    0.69687   0.74729   0.72745   1.000
    O662    O    0.19715   0.74756   0.72752   1.000
    O663    O    0.58151   0.37544   0.73348   1.000
    O664    O    0.89605   0.16189   0.72493   1.000
    O665    O    0.83637   0.22692   0.73200   1.000
    O666    O    0.39686   0.16058   0.72546   1.000
    O667    O    0.33639   0.22505   0.73265   1.000
    O668    O    0.08480   0.37566   0.73615   1.000
    O669    O    0.58685   0.60861   0.74247   1.000
    O670    O    0.08940   0.60772   0.74406   1.000
    O671    O    0.68598   0.19070   0.72892   1.000
    O672    O    0.74484   0.24000   0.73777   1.000
    O673    O    0.65291   0.24961   0.74533   1.000
    O674    O    0.18570   0.18920   0.73019   1.000
    O675    O    0.24488   0.23826   0.73881   1.000
    O676    O    0.15309   0.24826   0.74667   1.000
    O677    O    0.36863   0.48840   0.76551   1.000
    O678    O    0.87310   0.48835   0.76665   1.000
    O679    O    0.90977   0.10663   0.75606   1.000
    O680    O    0.41248   0.10612   0.75693   1.000
    O681    O    0.40670   0.81260   0.74086   1.000
    O682    O    0.34734   0.74900   0.75391   1.000
    O683    O    0.90555   0.81183   0.74075   1.000
    O684    O    0.84692   0.74771   0.75383   1.000
    O685    O    0.80530   0.28886   0.74526   1.000
    O686    O    0.30551   0.28692   0.74622   1.000
    O687    O    0.91688   0.87428   0.76542   1.000
    O688    O    0.41946   0.87453   0.76589   1.000
    O689    O    0.80241   0.24619   0.77295   1.000
    O690    O    0.30284   0.24405   0.77378   1.000
    O691    O    0.69521   0.78868   0.75598   1.000
    O692    O    0.75507   0.73884   0.76204   1.000
    O693    O    0.66343   0.72656   0.76830   1.000
    O694    O    0.19535   0.78946   0.75571   1.000
    O695    O    0.25545   0.73995   0.76216   1.000
    O696    O    0.16390   0.72744   0.76857   1.000
    O697    O    0.59366   0.31320   0.75835   1.000
    O698    O    0.53965   0.36430   0.77486   1.000
    O699    O    0.09512   0.31252   0.76023   1.000
    O700    O    0.04198   0.36409   0.77710   1.000
    O701    O    0.59341   0.25525   0.79034   1.000
    O702    O    0.60261   0.66206   0.77460   1.000
    O703    O    0.54744   0.60833   0.78528   1.000
    O704    O    0.09310   0.25370   0.79147   1.000
    O705    O    0.10394   0.66248   0.77564   1.000
    O706    O    0.04942   0.60848   0.78692   1.000
    O707    O    0.81335   0.68852   0.76953   1.000
    O708    O    0.31392   0.68997   0.77001   1.000
    O709    O    0.15311   0.99457   0.79752   1.000
    O710    O    0.65523   0.99487   0.79760   1.000
    O711    O    0.81488   0.73321   0.79619   1.000
    O712    O    0.31529   0.73511   0.79633   1.000
    O713    O    0.60607   0.70974   0.81341   1.000
    O714    O    0.10619   0.71155   0.81368   1.000
    O715    O    0.46170   0.42939   0.79856   1.000
    O716    O    0.50597   0.33821   0.81688   1.000
    O717    O    0.96410   0.42926   0.80068   1.000
    O718    O    0.00423   0.33742   0.81857   1.000
    O719    O    0.46596   0.53880   0.80322   1.000
    O720    O    0.37739   0.50010   0.83748   1.000
    O721    O    0.96824   0.53905   0.80512   1.000
    O722    O    0.87804   0.50043   0.83856   1.000
    O723    O    0.51679   0.62247   0.83045   1.000
    O724    O    0.01798   0.62384   0.83173   1.000
    O725    O    0.58174   0.20534   0.82562   1.000
    O726    O    0.53911   0.27039   0.82707   1.000
    O727    O    0.07972   0.20301   0.82603   1.000
    O728    O    0.03573   0.26875   0.82807   1.000
    O729    O    0.08615   0.99846   0.82952   1.000
    O730    O    0.17083   0.99801   0.85080   1.000
    O731    O    0.58816   0.99873   0.82953   1.000
    O732    O    0.67272   0.99884   0.85092   1.000
    O733    O    0.48013   0.30181   0.85637   1.000
    O734    O    0.97699   0.30034   0.85744   1.000
    O735    O    0.55290   0.68547   0.84855   1.000
    O736    O    0.59856   0.74868   0.85475   1.000
    O737    O    0.05292   0.68789   0.84898   1.000
    O738    O    0.09749   0.75188   0.85434   1.000
    O739    O    0.49502   0.64661   0.87473   1.000
    O740    O    0.99527   0.64933   0.87552   1.000
    O741    O    0.24633   0.00788   0.86790   1.000
    O742    O    0.74820   0.00875   0.86814   1.000
    O743    O    0.28627   0.40847   0.87915   1.000
    O744    O    0.78711   0.40838   0.87925   1.000
    O745    O    0.31062   0.48093   0.88305   1.000
    O746    O    0.80985   0.48123   0.88307   1.000
    O747    O    0.21253   0.96391   0.88553   1.000
    O748    O    0.19399   0.02953   0.90366   1.000
    O749    O    0.71398   0.96527   0.88606   1.000
    O750    O    0.69563   0.03132   0.90352   1.000
    O751    O    0.74648   0.45455   0.91755   1.000
    O752    O    0.24723   0.45496   0.91784   1.000
    O753    O    0.67661   0.09733   0.92119   1.000
    O754    O    0.17453   0.09504   0.92194   1.000
    O755    O    0.67670   0.48020   0.93345   1.000
    O756    O    0.17803   0.48127   0.93414   1.000
    O757    O    0.64280   0.05249   0.93780   1.000
    O758    O    0.71812   0.06320   0.95641   1.000
    O759    O    0.14151   0.04965   0.93846   1.000
    O760    O    0.21704   0.06067   0.95663   1.000
    O761    O    0.37741   0.08403   0.95016   1.000
    O762    O    0.87850   0.08591   0.95057   1.000
    O763    O    0.72676   0.48742   0.95931   1.000
    O764    O    0.69308   0.42017   0.96040   1.000
    O765    O    0.22855   0.48801   0.95976   1.000
    O766    O    0.19405   0.42107   0.96099   1.000
    O767    O    0.34935   0.13741   0.95558   1.000
    O768    O    0.85086   0.13946   0.95594   1.000
    O769    O    0.65740   0.35491   0.96097   1.000
    O770    O    0.15814   0.35592   0.96162   1.000
    O771    O    0.30604   0.08301   0.97498   1.000
    O772    O    0.80692   0.08535   0.97517   1.000
    O773    O    0.71058   0.35913   0.98484   1.000
    O774    O    0.21112   0.36010   0.98562   1.000
    O775    O    0.26087   0.02647   0.99141   1.000
loop_
    _geom_bond_atom_site_label_1
    _geom_bond_atom_site_label_2
    _geom_bond_distance
    _geom_bond_site_symmetry_2
    _ccdc_geom_bond_type
    C169   O376      0.55071  1_564   S
    C303   O376      0.55071      .   S
    C36    O377      0.55954      .   S
    C207   O377      0.55954      .   S
    C37    O378      0.55182      .   S
    C206   O378      0.55182      .   S
    C178   O379      0.55110      .   S
    C306   O379      0.55110      .   S
    C179   O380      0.55116      .   S
    C307   O380      0.55116      .   S
    C206   O381      0.76733      .   S
    C209   O381      0.76733      .   S
    C206   O382      0.76653      .   S
    C204   O382      0.76653      .   S
    C206   O383      0.55158  1_554   S
    C38    O383      0.55158      .   S
    C207   O384      0.80536      .   S
    C208   O384      0.80536      .   S
    C207   O385      0.73946  1_455   S
    C205   O385      0.73946      .   S
    C207   O386      0.53553  1_454   S
    C39    O386      0.53553      .   S
    C171   O387      0.55155      .   S
    C303   O387      0.55155  1_556   S
    C170   O388      0.55152      .   S
    C302   O388      0.55152  1_556   S
    C306   O389      0.55039      .   S
    C176   O389      0.55039      .   S
    C306   O390      0.76480      .   S
    C308   O390      0.76480      .   S
    C306   O391      0.76688  1_554   S
    C304   O391      0.76688      .   S
    C307   O392      0.55036      .   S
    C177   O392      0.55036      .   S
    C307   O393      0.76493      .   S
    C309   O393      0.76493      .   S
    C307   O394      0.76689  1_554   S
    C305   O394      0.76689      .   S
    C182   O395      0.55048  1_565   S
    C308   O395      0.55048      .   S
    C183   O396      0.55034  1_565   S
    C309   O396      0.55034      .   S
    C209   O397      0.55240      .   S
    C43    O397      0.55240      .   S
    C209   O398      0.55176      .   S
    C41    O398      0.55176      .   S
    C209   O399      0.76675      .   S
    C211   O399      0.76675  1_556   S
    C208   O400      0.55243      .   S
    C42    O400      0.55243      .   S
    C208   O401      0.55173      .   S
    C40    O401      0.55173      .   S
    C208   O402      0.76704      .   S
    C210   O402      0.76704  1_556   S
    C35    O403      0.54955      .   S
    C205   O403      0.54955      .   S
    C34    O404      0.54950      .   S
    C204   O404      0.54950      .   S
    C308   O405      0.55169      .   S
    C180   O405      0.55169      .   S
    C308   O406      0.76138      .   S
    C311   O406      0.76138      .   S
    C309   O407      0.55173      .   S
    C181   O407      0.55173      .   S
    C309   O408      0.76126      .   S
    C310   O408      0.76126  1_455   S
    C205   O409      0.55153      .   S
    C33    O409      0.55153      .   S
    C205   O410      0.76618      .   S
    C203   O410      0.76618      .   S
    C204   O411      0.55148      .   S
    C32    O411      0.55148      .   S
    C204   O412      0.76607      .   S
    C202   O412      0.76607      .   S
    C70    O413      0.54194      .   S
    C230   O413      0.54194      .   S
    C71    O414      0.54195      .   S
    C231   O414      0.54195      .   S
    C31    O415      0.55306      .   S
    C203   O415      0.55306      .   S
    C30    O416      0.55305      .   S
    C202   O416      0.55305      .   S
    C311   O417      0.65322      .   S
    C373   O417      0.65322  1_565   S
    C311   O418      0.62469      .   S
    C375   O418      0.62469      .   S
    C310   O419      0.65337      .   S
    C372   O419      0.65337  1_565   S
    C310   O420      0.62490      .   S
    C374   O420      0.62490      .   S
    C142   O421      0.54130      .   S
    C282   O421      0.54130      .   S
    C203   O422      0.54909      .   S
    C28    O422      0.54909  1_455   S
    C203   O423      0.76585      .   S
    C201   O423      0.76585      .   S
    C143   O424      0.54134      .   S
    C283   O424      0.54134      .   S
    C202   O425      0.54918      .   S
    C29    O425      0.54918      .   S
    C202   O426      0.76551      .   S
    C200   O426      0.76551      .   S
    C372   O427      0.99319  1_565   S
    C6     O427      0.99319      .   S
    C373   O428      0.99120      .   S
    C7     O428      0.99120  1_545   S
    C68    O429      0.54153      .   S
    C228   O429      0.54153      .   S
    C69    O430      0.54149      .   S
    C229   O430      0.54149      .   S
    C230   O431      0.68554      .   S
    C228   O431      0.68554      .   S
    C230   O432      0.69341      .   S
    C326   O432      0.69341      .   S
    C231   O433      0.68555      .   S
    C229   O433      0.68555      .   S
    C231   O434      0.69347      .   S
    C327   O434      0.69347      .   S
    C228   O435      0.69386      .   S
    C324   O435      0.69386      .   S
    C229   O436      0.69395      .   S
    C325   O436      0.69395      .   S
    C282   O437      0.68384      .   S
    C284   O437      0.68384      .   S
    C282   O438      0.69319      .   S
    C336   O438      0.69319      .   S
    C283   O439      0.68384      .   S
    C285   O439      0.68384      .   S
    C283   O440      0.69320      .   S
    C337   O440      0.69320      .   S
    C144   O441      0.54053      .   S
    C284   O441      0.54053      .   S
    C145   O442      0.54056      .   S
    C285   O442      0.54056      .   S
    C347   O443      0.62490      .   S
    C201   O443      0.62490      .   S
    C346   O444      0.62500      .   S
    C200   O444      0.62500      .   S
    C201   O445      0.65282      .   S
    C345   O445      0.65282      .   S
    C200   O446      0.65308      .   S
    C344   O446      0.65308      .   S
    C58    O447      0.54877      .   S
    C222   O447      0.54877      .   S
    C59    O448      0.54887      .   S
    C223   O448      0.54887      .   S
    C284   O449      0.69326      .   S
    C338   O449      0.69326      .   S
    C285   O450      0.69323      .   S
    C339   O450      0.69323      .   S
    C326   O451      1.03256      .   S
    C6     O451      1.03256  1_545   S
    C326   O452      0.66648      .   S
    C226   O452      0.66648      .   S
    C327   O453      1.03401      .   S
    C7     O453      1.03401  1_545   S
    C327   O454      0.66612      .   S
    C227   O454      0.66612      .   S
    C6     O455      1.00911      .   S
    C336   O455      1.00911      .   S
    C6     O456      1.00364      .   S
    C360   O456      1.00364      .   S
    C7     O457      1.01141      .   S
    C337   O457      1.01141      .   S
    C7     O458      1.00480      .   S
    C361   O458      1.00480      .   S
    C336   O459      0.66747      .   S
    C280   O459      0.66747      .   S
    C153   O460      0.54773      .   S
    C289   O460      0.54773      .   S
    C337   O461      0.66759      .   S
    C281   O461      0.66759      .   S
    C152   O462      0.54771      .   S
    C288   O462      0.54771      .   S
    C52    O463      0.54180      .   S
    C216   O463      0.54180      .   S
    C53    O464      0.54183      .   S
    C217   O464      0.54183      .   S
    C324   O465      0.67937      .   S
    C226   O465      0.67937      .   S
    C324   O466      0.73075      .   S
    C224   O466      0.73075      .   S
    C325   O467      0.67923      .   S
    C227   O467      0.67923      .   S
    C325   O468      0.73109      .   S
    C225   O468      0.73109      .   S
    C155   O469      0.54153      .   S
    C291   O469      0.54153      .   S
    C154   O470      0.54148      .   S
    C290   O470      0.54148      .   S
    C222   O471      0.54852      .   S
    C60    O471      0.54852      .   S
    C222   O472      0.76649      .   S
    C225   O472      0.76649  1_655   S
    C222   O473      0.73031      .   S
    C322   O473      0.73031      .   S
    C223   O474      0.54849      .   S
    C61    O474      0.54849      .   S
    C223   O475      0.76637      .   S
    C224   O475      0.76637      .   S
    C223   O476      0.72974      .   S
    C323   O476      0.72974      .   S
    C345   O477      1.00019      .   S
    C3     O477      1.00019      .   S
    C344   O478      1.00034      .   S
    C2     O478      1.00034      .   S
    C226   O479      0.54157      .   S
    C66    O479      0.54157      .   S
    C227   O480      0.54217      .   S
    C67    O480      0.54217      .   S
    C338   O481      0.67929      .   S
    C280   O481      0.67929      .   S
    C338   O482      0.72962      .   S
    C286   O482      0.72962      .   S
    C339   O483      0.67941      .   S
    C281   O483      0.67941      .   S
    C339   O484      0.73023      .   S
    C287   O484      0.73023      .   S
    C62    O485      0.54852      .   S
    C224   O485      0.54852      .   S
    C63    O486      0.54840      .   S
    C225   O486      0.54840      .   S
    C280   O487      0.54176      .   S
    C140   O487      0.54176      .   S
    C281   O488      0.54175      .   S
    C141   O488      0.54175      .   S
    C224   O489      0.54767      .   S
    C64    O489      0.54767      .   S
    C225   O490      0.54762      .   S
    C65    O490      0.54762      .   S
    C289   O491      0.54843      .   S
    C151   O491      0.54843      .   S
    C289   O492      0.76617      .   S
    C286   O492      0.76617      .   S
    C289   O493      0.73077      .   S
    C341   O493      0.73077      .   S
    C288   O494      0.54827      .   S
    C150   O494      0.54827      .   S
    C288   O495      0.76648  1_455   S
    C287   O495      0.76648      .   S
    C288   O496      0.73108      .   S
    C340   O496      0.73108      .   S
    C216   O497      0.67939      .   S
    C322   O497      0.67939      .   S
    C216   O498      0.66761      .   S
    C320   O498      0.66761      .   S
    C217   O499      0.67929      .   S
    C323   O499      0.67929      .   S
    C217   O500      0.66740      .   S
    C321   O500      0.66740      .   S
    C322   O501      0.69321      .   S
    C220   O501      0.69321      .   S
    C323   O502      0.69324      .   S
    C221   O502      0.69324      .   S
    C291   O503      0.67932      .   S
    C341   O503      0.67932      .   S
    C291   O504      0.66649      .   S
    C343   O504      0.66649      .   S
    C290   O505      0.67947      .   S
    C340   O505      0.67947      .   S
    C290   O506      0.66669      .   S
    C342   O506      0.66669      .   S
    C148   O507      0.54839      .   S
    C286   O507      0.54839      .   S
    C149   O508      0.54851      .   S
    C287   O508      0.54851      .   S
    C360   O509      0.65246      .   S
    C264   O509      0.65246      .   S
    C361   O510      0.65272      .   S
    C265   O510      0.65272      .   S
    C286   O511      0.54948      .   S
    C146   O511      0.54948      .   S
    C287   O512      0.54876      .   S
    C147   O512      0.54876      .   S
    C341   O513      0.69392      .   S
    C293   O513      0.69392      .   S
    C340   O514      0.69393      .   S
    C292   O514      0.69393      .   S
    C320   O515      1.01124      .   S
    C2     O515      1.01124      .   S
    C320   O516      0.69320      .   S
    C218   O516      0.69320      .   S
    C321   O517      1.00969      .   S
    C3     O517      1.00969      .   S
    C321   O518      0.69326      .   S
    C219   O518      0.69326      .   S
    C3     O519      1.03254      .   S
    C343   O519      1.03254      .   S
    C3     O520      0.99150      .   S
    C357   O520      0.99150      .   S
    C2     O521      1.03415      .   S
    C342   O521      1.03415      .   S
    C2     O522      0.99232      .   S
    C356   O522      0.99232      .   S
    C343   O523      0.69344      .   S
    C295   O523      0.69344      .   S
    C342   O524      0.69341      .   S
    C294   O524      0.69341      .   S
    C220   O525      0.54039      .   S
    C56    O525      0.54039      .   S
    C220   O526      0.68381      .   S
    C218   O526      0.68381      .   S
    C221   O527      0.54053      .   S
    C57    O527      0.54053      .   S
    C221   O528      0.68383      .   S
    C219   O528      0.68383      .   S
    C264   O529      0.62477      .   S
    C362   O529      0.62477      .   S
    C264   O530      0.76571  1_545   S
    C266   O530      0.76571      .   S
    C265   O531      0.62446      .   S
    C363   O531      0.62446      .   S
    C265   O532      0.76520      .   S
    C267   O532      0.76520      .   S
    C218   O533      0.54146      .   S
    C54    O533      0.54146      .   S
    C219   O534      0.54128      .   S
    C55    O534      0.54128      .   S
    C293   O535      0.68553      .   S
    C295   O535      0.68553      .   S
    C293   O536      0.54151      .   S
    C157   O536      0.54151      .   S
    C292   O537      0.68556      .   S
    C294   O537      0.68556      .   S
    C292   O538      0.54156      .   S
    C156   O538      0.54156      .   S
    C295   O539      0.54193      .   S
    C159   O539      0.54193      .   S
    C294   O540      0.54199      .   S
    C158   O540      0.54199      .   S
    C117   O541      0.54905  1_655   S
    C266   O541      0.54905      .   S
    C116   O542      0.54682      .   S
    C267   O542      0.54682  1_545   S
    C359   O543      0.62466      .   S
    C247   O543      0.62466      .   S
    C358   O544      0.62442      .   S
    C246   O544      0.62442      .   S
    C357   O545      0.65332      .   S
    C247   O545      0.65332      .   S
    C356   O546      0.65364      .   S
    C246   O546      0.65364      .   S
    C266   O547      0.55305  1_565   S
    C118   O547      0.55305      .   S
    C266   O548      0.76612      .   S
    C268   O548      0.76612      .   S
    C267   O549      0.56123      .   S
    C119   O549      0.56123      .   S
    C267   O550      0.76155  1_545   S
    C269   O550      0.76155      .   S
    C247   O551      0.76114  1_655   S
    C244   O551      0.76114      .   S
    C246   O552      0.76164      .   S
    C245   O552      0.76164      .   S
    C120   O553      0.55157      .   S
    C268   O553      0.55157      .   S
    C121   O554      0.55158      .   S
    C269   O554      0.55158      .   S
    C92    O555      0.55159      .   S
    C244   O555      0.55159      .   S
    C93    O556      0.55161      .   S
    C245   O556      0.55161      .   S
    C268   O557      0.54953      .   S
    C122   O557      0.54953      .   S
    C268   O558      0.76676      .   S
    C270   O558      0.76676  1_655   S
    C269   O559      0.54955      .   S
    C123   O559      0.54955      .   S
    C269   O560      0.76676      .   S
    C271   O560      0.76676      .   S
    C129   O561      0.55171      .   S
    C273   O561      0.55171      .   S
    C128   O562      0.55169      .   S
    C272   O562      0.55169      .   S
    C244   O563      0.55066      .   S
    C94    O563      0.55066      .   S
    C244   O564      0.76493      .   S
    C242   O564      0.76493      .   S
    C131   O565      0.55242      .   S
    C273   O565      0.55242      .   S
    C88    O566      0.55041      .   S
    C242   O566      0.55041      .   S
    C130   O567      0.55239      .   S
    C272   O567      0.55239      .   S
    C245   O568      0.55065      .   S
    C95    O568      0.55065      .   S
    C245   O569      0.76502      .   S
    C243   O569      0.76502      .   S
    C89    O570      0.55042      .   S
    C243   O570      0.55042      .   S
    C273   O571      0.76736      .   S
    C270   O571      0.76736      .   S
    C273   O572      0.76657      .   S
    C275   O572      0.76657      .   S
    C272   O573      0.76748      .   S
    C271   O573      0.76748      .   S
    C272   O574      0.76677      .   S
    C274   O574      0.76677      .   S
    C242   O575      0.55110      .   S
    C90    O575      0.55110      .   S
    C242   O576      0.76689      .   S
    C240   O576      0.76689      .   S
    C243   O577      0.55109      .   S
    C91    O577      0.55109      .   S
    C243   O578      0.76707      .   S
    C241   O578      0.76707      .   S
    C82    O579      0.55209      .   S
    C238   O579      0.55209      .   S
    C83    O580      0.55184      .   S
    C239   O580      0.55184      .   S
    C270   O581      0.48134      .   S
    C125   O581      0.48134  1_545   S
    C270   O582      0.55163  1_655   S
    C126   O582      0.55163      .   S
    C271   O583      0.46837      .   S
    C124   O583      0.46837  1_545   S
    C271   O584      0.55154      .   S
    C127   O584      0.55154      .   S
    C80    O585      0.55178      .   S
    C238   O585      0.55178      .   S
    C81    O586      0.55193      .   S
    C239   O586      0.55193      .   S
    C135   O587      0.55095      .   S
    C275   O587      0.55095      .   S
    C134   O588      0.55108      .   S
    C274   O588      0.55108      .   S
    C238   O589      0.76733      .   S
    C240   O589      0.76733      .   S
    C238   O590      0.76660      .   S
    C236   O590      0.76660      .   S
    C239   O591      0.76755      .   S
    C241   O591      0.76755      .   S
    C239   O592      0.76690      .   S
    C237   O592      0.76690      .   S
    C275   O593      0.55061      .   S
    C133   O593      0.55061      .   S
    C275   O594      0.76502      .   S
    C277   O594      0.76502      .   S
    C274   O595      0.55046      .   S
    C132   O595      0.55046      .   S
    C274   O596      0.76485      .   S
    C276   O596      0.76485      .   S
    C138   O597      0.49152  1_545   S
    C276   O597      0.49152      .   S
    C139   O598      0.48932  1_545   S
    C277   O598      0.48932      .   S
    C240   O599      0.55240      .   S
    C86    O599      0.55240      .   S
    C240   O600      0.55162      .   S
    C84    O600      0.55162      .   S
    C241   O601      0.55243      .   S
    C87    O601      0.55243      .   S
    C241   O602      0.55179      .   S
    C85    O602      0.55179      .   S
    C79    O603      0.54951      .   S
    C237   O603      0.54951      .   S
    C78    O604      0.54960      .   S
    C236   O604      0.54960      .   S
    C276   O605      0.54980      .   S
    C136   O605      0.54980  1_545   S
    C276   O606      0.76154      .   S
    C278   O606      0.76154      .   S
    C277   O607      0.55159      .   S
    C137   O607      0.55159      .   S
    C277   O608      0.76149      .   S
    C279   O608      0.76149      .   S
    C237   O609      0.55148      .   S
    C77    O609      0.55148      .   S
    C237   O610      0.76606      .   S
    C235   O610      0.76606      .   S
    C236   O611      0.55149      .   S
    C76    O611      0.55149      .   S
    C236   O612      0.76615      .   S
    C234   O612      0.76615      .   S
    C27    O613      0.54189      .   S
    C198   O613      0.54189      .   S
    C26    O614      0.54185      .   S
    C199   O614      0.54185  1_655   S
    C74    O615      0.55306      .   S
    C234   O615      0.55306      .   S
    C75    O616      0.55309      .   S
    C235   O616      0.55309      .   S
    C278   O617      0.65300      .   S
    C364   O617      0.65300  1_545   S
    C278   O618      0.62447      .   S
    C366   O618      0.62447      .   S
    C279   O619      0.65331      .   S
    C365   O619      0.65331  1_545   S
    C279   O620      0.62447      .   S
    C367   O620      0.62447      .   S
    C99    O621      0.54087      .   S
    C251   O621      0.54087      .   S
    C98    O622      0.54125      .   S
    C250   O622      0.54125  1_655   S
    C234   O623      0.54921      .   S
    C72    O623      0.54921      .   S
    C234   O624      0.76532      .   S
    C232   O624      0.76532      .   S
    C235   O625      0.54921      .   S
    C73    O625      0.54921      .   S
    C235   O626      0.76602      .   S
    C233   O626      0.76602      .   S
    C364   O627      0.99272      .   S
    C4     O627      0.99272  1_565   S
    C365   O628      0.99199      .   S
    C5     O628      0.99199  1_565   S
    C24    O629      0.54151      .   S
    C196   O629      0.54151      .   S
    C25    O630      0.54151      .   S
    C197   O630      0.54151      .   S
    C198   O631      0.68555      .   S
    C196   O631      0.68555      .   S
    C198   O632      0.69347      .   S
    C318   O632      0.69347      .   S
    C199   O633      0.68552      .   S
    C197   O633      0.68552      .   S
    C199   O634      0.69350      .   S
    C319   O634      0.69350      .   S
    C196   O635      0.69391      .   S
    C316   O635      0.69391      .   S
    C197   O636      0.69391      .   S
    C317   O636      0.69391      .   S
    C251   O637      0.68410      .   S
    C252   O637      0.68410      .   S
    C251   O638      0.69362      .   S
    C328   O638      0.69362      .   S
    C250   O639      0.68368      .   S
    C253   O639      0.68368      .   S
    C250   O640      0.69332      .   S
    C329   O640      0.69332      .   S
    C100   O641      0.54054      .   S
    C252   O641      0.54054      .   S
    C101   O642      0.54042      .   S
    C253   O642      0.54042      .   S
    C355   O643      0.62482      .   S
    C233   O643      0.62482      .   S
    C354   O644      0.62500      .   S
    C232   O644      0.62500      .   S
    C232   O645      0.65290      .   S
    C352   O645      0.65290      .   S
    C233   O646      0.65272      .   S
    C353   O646      0.65272      .   S
    C15    O647      0.54877      .   S
    C191   O647      0.54877      .   S
    C14    O648      0.54871      .   S
    C190   O648      0.54871      .   S
    C252   O649      0.69322      .   S
    C330   O649      0.69322      .   S
    C253   O650      0.69325      .   S
    C331   O650      0.69325      .   S
    C319   O651      1.03138  1_655   S
    C4     O651      1.03138  1_565   S
    C319   O652      0.66657      .   S
    C195   O652      0.66657      .   S
    C318   O653      1.03214      .   S
    C5     O653      1.03214  1_565   S
    C318   O654      0.66627      .   S
    C194   O654      0.66627      .   S
    C4     O655      1.00900      .   S
    C329   O655      1.00900  1_655   S
    C4     O656      1.00055      .   S
    C368   O656      1.00055      .   S
    C5     O657      1.00986      .   S
    C328   O657      1.00986      .   S
    C5     O658      1.00073      .   S
    C369   O658      1.00073      .   S
    C329   O659      0.66753      .   S
    C249   O659      0.66753      .   S
    C328   O660      0.66760      .   S
    C248   O660      0.66760      .   S
    C109   O661      0.54781      .   S
    C257   O661      0.54781      .   S
    C108   O662      0.54773      .   S
    C256   O662      0.54773      .   S
    C9     O663      0.54208      .   S
    C185   O663      0.54208      .   S
    C317   O664      0.67926      .   S
    C195   O664      0.67926      .   S
    C317   O665      0.73073      .   S
    C193   O665      0.73073      .   S
    C316   O666      0.67913      .   S
    C194   O666      0.67913      .   S
    C316   O667      0.73089      .   S
    C192   O667      0.73089      .   S
    C8     O668      0.54172      .   S
    C184   O668      0.54172      .   S
    C111   O669      0.54153      .   S
    C259   O669      0.54153      .   S
    C110   O670      0.54631      .   S
    C258   O670      0.54631      .   S
    C191   O671      0.54849      .   S
    C17    O671      0.54849      .   S
    C191   O672      0.76643      .   S
    C193   O672      0.76643      .   S
    C191   O673      0.72993      .   S
    C315   O673      0.72993      .   S
    C190   O674      0.54847      .   S
    C16    O674      0.54847      .   S
    C190   O675      0.76629      .   S
    C192   O675      0.76629      .   S
    C190   O676      0.73000      .   S
    C314   O676      0.73000      .   S
    C352   O677      1.00054      .   S
    C0     O677      1.00054      .   S
    C353   O678      1.00083      .   S
    C1     O678      1.00083      .   S
    C195   O679      0.54146      .   S
    C23    O679      0.54146      .   S
    C194   O680      0.54199      .   S
    C22    O680      0.54199      .   S
    C330   O681      0.67933      .   S
    C248   O681      0.67933      .   S
    C330   O682      0.72999      .   S
    C254   O682      0.72999      .   S
    C331   O683      0.67928      .   S
    C249   O683      0.67928      .   S
    C331   O684      0.72980      .   S
    C255   O684      0.72980      .   S
    C19    O685      0.54842      .   S
    C193   O685      0.54842      .   S
    C18    O686      0.54833      .   S
    C192   O686      0.54833      .   S
    C249   O687      0.54180      .   S
    C97    O687      0.54180      .   S
    C248   O688      0.54181      .   S
    C96    O688      0.54181      .   S
    C193   O689      0.54775      .   S
    C21    O689      0.54775      .   S
    C192   O690      0.54773      .   S
    C20    O690      0.54773      .   S
    C257   O691      0.54850      .   S
    C107   O691      0.54850      .   S
    C257   O692      0.76638      .   S
    C255   O692      0.76638      .   S
    C257   O693      0.73076      .   S
    C333   O693      0.73076      .   S
    C256   O694      0.54848      .   S
    C106   O694      0.54848      .   S
    C256   O695      0.76646      .   S
    C254   O695      0.76646      .   S
    C256   O696      0.73086      .   S
    C332   O696      0.73086      .   S
    C185   O697      0.67930      .   S
    C315   O697      0.67930      .   S
    C185   O698      0.66750      .   S
    C313   O698      0.66750      .   S
    C184   O699      0.67930      .   S
    C314   O699      0.67930      .   S
    C184   O700      0.66751      .   S
    C312   O700      0.66751      .   S
    C315   O701      0.69321      .   S
    C189   O701      0.69321      .   S
    C259   O702      0.67936      .   S
    C333   O702      0.67936      .   S
    C259   O703      0.66652      .   S
    C335   O703      0.66652      .   S
    C314   O704      0.69322      .   S
    C188   O704      0.69322      .   S
    C258   O705      0.67936      .   S
    C332   O705      0.67936      .   S
    C258   O706      0.66652      .   S
    C334   O706      0.66652      .   S
    C105   O707      0.54853      .   S
    C255   O707      0.54853      .   S
    C104   O708      0.54851      .   S
    C254   O708      0.54851      .   S
    C368   O709      0.65288      .   S
    C296   O709      0.65288      .   S
    C369   O710      0.65297      .   S
    C297   O710      0.65297      .   S
    C255   O711      0.54900      .   S
    C103   O711      0.54900      .   S
    C254   O712      0.54877      .   S
    C102   O712      0.54877      .   S
    C333   O713      0.69396      .   S
    C261   O713      0.69396      .   S
    C332   O714      0.69396      .   S
    C260   O714      0.69396      .   S
    C313   O715      1.00986      .   S
    C0     O715      1.00986      .   S
    C313   O716      0.69321      .   S
    C186   O716      0.69321      .   S
    C312   O717      1.00964  1_455   S
    C1     O717      1.00964      .   S
    C312   O718      0.69501      .   S
    C187   O718      0.69501      .   S
    C0     O719      1.03231      .   S
    C335   O719      1.03231      .   S
    C0     O720      0.99497      .   S
    C348   O720      0.99497      .   S
    C1     O721      1.03224      .   S
    C334   O721      1.03224  1_455   S
    C1     O722      0.99281      .   S
    C349   O722      0.99281      .   S
    C335   O723      0.69290      .   S
    C263   O723      0.69290      .   S
    C334   O724      0.69345      .   S
    C262   O724      0.69345      .   S
    C189   O725      0.54043      .   S
    C13    O725      0.54043      .   S
    C189   O726      0.68384      .   S
    C186   O726      0.68384      .   S
    C188   O727      0.54047      .   S
    C12    O727      0.54047      .   S
    C188   O728      0.70818      .   S
    C187   O728      0.70818      .   S
    C296   O729      0.62486      .   S
    C370   O729      0.62486      .   S
    C296   O730      0.76570      .   S
    C298   O730      0.76570      .   S
    C297   O731      0.62490      .   S
    C371   O731      0.62490      .   S
    C297   O732      0.76570      .   S
    C299   O732      0.76570  1_545   S
    C186   O733      0.54131      .   S
    C10    O733      0.54131      .   S
    C187   O734      0.51863  1_455   S
    C11    O734      0.51863      .   S
    C261   O735      0.68534      .   S
    C263   O735      0.68534      .   S
    C261   O736      0.54124      .   S
    C113   O736      0.54124      .   S
    C260   O737      0.68553      .   S
    C262   O737      0.68553      .   S
    C260   O738      0.54153      .   S
    C112   O738      0.54153      .   S
    C263   O739      0.54251      .   S
    C114   O739      0.54251      .   S
    C262   O740      0.54193  1_455   S
    C115   O740      0.54193      .   S
    C160   O741      0.54917      .   S
    C298   O741      0.54917  1_565   S
    C161   O742      0.54914      .   S
    C299   O742      0.54914      .   S
    C350   O743      0.62472      .   S
    C214   O743      0.62472      .   S
    C351   O744      0.62475      .   S
    C215   O744      0.62475      .   S
    C348   O745      0.65323      .   S
    C214   O745      0.65323      .   S
    C349   O746      0.65302      .   S
    C215   O746      0.65302      .   S
    C298   O747      0.55305      .   S
    C162   O747      0.55305      .   S
    C298   O748      0.76621  1_565   S
    C300   O748      0.76621      .   S
    C299   O749      0.55301  1_545   S
    C163   O749      0.55301      .   S
    C299   O750      0.76641      .   S
    C301   O750      0.76641      .   S
    C215   O751      0.76105      .   S
    C213   O751      0.76105      .   S
    C214   O752      0.76156      .   S
    C212   O752      0.76156      .   S
    C165   O753      0.55149      .   S
    C301   O753      0.55149      .   S
    C164   O754      0.55148      .   S
    C300   O754      0.55148      .   S
    C49    O755      0.55157      .   S
    C213   O755      0.55157      .   S
    C48    O756      0.55159      .   S
    C212   O756      0.55159      .   S
    C301   O757      0.54921      .   S
    C167   O757      0.54921      .   S
    C301   O758      0.76668      .   S
    C303   O758      0.76668      .   S
    C300   O759      0.54947      .   S
    C166   O759      0.54947      .   S
    C300   O760      0.76665      .   S
    C302   O760      0.76665      .   S
    C172   O761      0.55176      .   S
    C304   O761      0.55176      .   S
    C173   O762      0.55173      .   S
    C305   O762      0.55173      .   S
    C213   O763      0.55067      .   S
    C51    O763      0.55067      .   S
    C213   O764      0.76477      .   S
    C211   O764      0.76477      .   S
    C212   O765      0.55065      .   S
    C50    O765      0.55065      .   S
    C212   O766      0.76502      .   S
    C210   O766      0.76502      .   S
    C174   O767      0.55258      .   S
    C304   O767      0.55258      .   S
    C175   O768      0.55238      .   S
    C305   O768      0.55238      .   S
    C45    O769      0.55080      .   S
    C211   O769      0.55080      .   S
    C44    O770      0.55047      .   S
    C210   O770      0.55047      .   S
    C304   O771      0.76739      .   S
    C302   O771      0.76739      .   S
    C305   O772      0.76735      .   S
    C303   O772      0.76735      .   S
    C211   O773      0.55106      .   S
    C47    O773      0.55106      .   S
    C210   O774      0.55111      .   S
    C46    O774      0.55111      .   S
    C302   O775      0.55171      .   S
    C168   O775      0.55171  1_565   S
