# CIF file generated by openbabel 2.4.90, see http://openbabel.sf.net
data_I
_chemical_name_common ''
_cell_length_a 12.19
_cell_length_b 12.328
_cell_length_c 14.117
_cell_angle_alpha 89.884
_cell_angle_beta 68.561
_cell_angle_gamma 89.961
_space_group_name_H-M_alt 'P 1'
_space_group_name_Hall 'P 1'
loop_
    _symmetry_equiv_pos_as_xyz
    x,y,z
loop_
    _atom_site_label
    _atom_site_type_symbol
    _atom_site_fract_x
    _atom_site_fract_y
    _atom_site_fract_z
    _atom_site_occupancy
    H0      H    0.35227   0.77087   0.73427   1.000
    H1      H    0.76885   0.86886   0.62221   1.000
    H2      H    0.91661   0.65839   0.79328   1.000
    H3      H    0.94112   0.85085   0.49561   1.000
    H4      H    0.06618   0.75011   0.73487   1.000
    H5      H    0.64718   0.26779   0.76813   1.000
    H6      H    0.23100   0.36690   0.87975   1.000
    H7      H    0.08352   0.15971   0.70678   1.000
    H8      H    0.05890   0.35124   0.00504   1.000
    H9      H    0.93290   0.24695   0.76763   1.000
    H10     H    0.64773   0.22910   0.26574   1.000
    H11     H    0.23116   0.13110   0.37778   1.000
    H12     H    0.08341   0.34153   0.20667   1.000
    H13     H    0.05890   0.14904   0.50435   1.000
    H14     H    0.93383   0.24988   0.26513   1.000
    H15     H    0.35283   0.73215   0.23187   1.000
    H16     H    0.76902   0.63306   0.12022   1.000
    H17     H    0.91649   0.84026   0.29318   1.000
    H18     H    0.94112   0.64871   0.99494   1.000
    H19     H    0.06711   0.75303   0.23234   1.000
    C20     C    0.53919   0.80880   0.73052   1.000
    C21     C    0.70451   0.58221   0.91964   1.000
    C22     C    0.16339   0.90703   0.35890   1.000
    C23     C    0.29897   0.79261   0.61969   1.000
    C24     C    0.65151   0.76849   0.73961   1.000
    C25     C    0.76244   0.80761   0.67948   1.000
    C26     C    0.86276   0.76570   0.69355   1.000
    C27     C    0.84451   0.69271   0.77447   1.000
    C28     C    0.73028   0.65845   0.83096   1.000
    C29     C    0.12620   0.85938   0.46581   1.000
    C30     C    0.00935   0.83661   0.52714   1.000
    C31     C    0.00000   0.79592   0.62605   1.000
    C32     C    0.07826   0.78117   0.65954   1.000
    C33     C    0.19163   0.80495   0.59323   1.000
    C34     C    0.46074   0.30795   0.77055   1.000
    C35     C    0.29538   0.08538   0.57927   1.000
    C36     C    0.83687   0.40695   0.14163   1.000
    C37     C    0.70021   0.28889   0.88299   1.000
    C38     C    0.34840   0.26821   0.76121   1.000
    C39     C    0.23740   0.30659   0.82190   1.000
    C40     C    0.13707   0.26517   0.80759   1.000
    C41     C    0.15550   0.19350   0.72595   1.000
    C42     C    0.26977   0.16003   0.66883   1.000
    C43     C    0.87368   0.35816   0.03543   1.000
    C44     C    0.99053   0.33573   0.97399   1.000
    C45     C    0.01584   0.29451   0.87545   1.000
    C46     C    0.92115   0.27848   0.84263   1.000
    C47     C    0.80775   0.30179   0.90910   1.000
    C48     C    0.46081   0.19113   0.26946   1.000
    C49     C    0.29548   0.41777   0.08037   1.000
    C50     C    0.83661   0.09292   0.64110   1.000
    C51     C    0.70106   0.20732   0.38029   1.000
    C52     C    0.34850   0.23143   0.26035   1.000
    C53     C    0.23756   0.19232   0.32048   1.000
    C54     C    0.13725   0.23424   0.30642   1.000
    C55     C    0.15550   0.30729   0.22554   1.000
    C56     C    0.26973   0.34150   0.16903   1.000
    C57     C    0.87382   0.14050   0.53416   1.000
    C58     C    0.99066   0.16333   0.47284   1.000
    C59     C    0.01613   0.20403   0.37394   1.000
    C60     C    0.92176   0.21880   0.34046   1.000
    C61     C    0.80839   0.19500   0.40675   1.000
    C62     C    0.53928   0.69201   0.22943   1.000
    C63     C    0.70464   0.91456   0.42072   1.000
    C64     C    0.16314   0.59301   0.85835   1.000
    C65     C    0.29981   0.71105   0.11700   1.000
    C66     C    0.65162   0.73175   0.23876   1.000
    C67     C    0.76261   0.69339   0.17805   1.000
    C68     C    0.86294   0.73478   0.19239   1.000
    C69     C    0.84451   0.80641   0.27405   1.000
    C70     C    0.73024   0.83990   0.33117   1.000
    C71     C    0.12633   0.64181   0.96455   1.000
    C72     C    0.00949   0.66422   0.00000   1.000
    C73     C    0.00000   0.70545   0.12453   1.000
    C74     C    0.07887   0.72145   0.15736   1.000
    C75     C    0.19227   0.69814   0.09088   1.000
    N76     N    0.63547   0.69098   0.81104   1.000
    N77     N    0.21529   0.84233   0.49841   1.000
    N78     N    0.36457   0.19193   0.68894   1.000
    N79     N    0.78434   0.33991   0.00348   1.000
    N80     N    0.36454   0.30895   0.18892   1.000
    N81     N    0.78474   0.15755   0.50155   1.000
    N82     N    0.63545   0.80802   0.31105   1.000
    N83     N    0.21568   0.66004   0.99650   1.000
    O84     O    0.44891   0.74680   0.77123   1.000
    O85     O    0.53654   0.89744   0.68728   1.000
    O86     O    0.60640   0.52873   0.94315   1.000
    O87     O    0.77258   0.57444   0.96703   1.000
    O88     O    0.27358   0.93538   0.32133   1.000
    O89     O    0.08956   0.91568   0.31784   1.000
    O90     O    0.39887   0.79576   0.55124   1.000
    O91     O    0.27664   0.78189   0.71681   1.000
    O92     O    0.55102   0.24615   0.72932   1.000
    O93     O    0.46329   0.39594   0.81451   1.000
    O94     O    0.39392   0.03230   0.55468   1.000
    O95     O    0.22659   0.07848   0.53261   1.000
    O96     O    0.72676   0.43567   0.17903   1.000
    O97     O    0.91111   0.41643   0.18214   1.000
    O98     O    0.60038   0.29223   0.95149   1.000
    O99     O    0.72255   0.27771   0.78594   1.000
    O100    O    0.55107   0.25317   0.22880   1.000
    O101    O    0.46348   0.10249   0.31270   1.000
    O102    O    0.39363   0.47121   0.05683   1.000
    O103    O    0.22743   0.42551   0.03296   1.000
    O104    O    0.72640   0.06459   0.67868   1.000
    O105    O    0.91044   0.08427   0.68216   1.000
    O106    O    0.60116   0.20420   0.44875   1.000
    O107    O    0.72338   0.21808   0.28317   1.000
    O108    O    0.44899   0.75379   0.27067   1.000
    O109    O    0.53674   0.60400   0.18548   1.000
    O110    O    0.60610   0.96764   0.44528   1.000
    O111    O    0.77343   0.92150   0.46738   1.000
    O112    O    0.27326   0.56430   0.82092   1.000
    O113    O    0.08891   0.58357   0.81783   1.000
    O114    O    0.39964   0.70771   0.00000   1.000
    O115    O    0.27746   0.72225   0.21405   1.000
loop_
    _geom_bond_atom_site_label_1
    _geom_bond_atom_site_label_2
    _geom_bond_distance
    _geom_bond_site_symmetry_2
    _ccdc_geom_bond_type
    O114   C65       1.65581      .   S
    C72    C73       1.79363      .   S
    C72    C71       1.35448  1_554   S
    C72    H18       0.88318  1_454   S
    N79    C43       1.34156      .   S
    N79    C47       1.34231  1_554   S
    H8     C44       1.09127  1_454   S
    O103   C49       1.24522      .   S
    C43    C36       1.52395      .   S
    C43    C44       1.39821  1_554   S
    O102   C49       1.29823      .   S
    C49    C56       1.50255      .   S
    C75    C65       1.49454      .   S
    C75    C74       1.38796      .   S
    C75    N83       1.34221  1_554   S
    C65    O115      1.30307      .   S
    H16    C67       1.08703      .   S
    C73    C74       1.22650      .   S
    C73    C68       1.63415  1_455   S
    C36    O96       1.29918      .   S
    C36    O97       1.24029      .   S
    C74    H19       1.08779      .   S
    C56    N80       1.34607      .   S
    C56    C55       1.39306      .   S
    C67    C68       1.40684      .   S
    C67    C66       1.39354      .   S
    O109   C62       1.25695      .   S
    N80    C52       1.34921      .   S
    C68    C69       1.40495      .   S
    H12    C55       1.09170      .   S
    O115   H15       1.04469      .   S
    C55    C54       1.40512      .   S
    O100   C48       1.28946      .   S
    C62    C66       1.50522      .   S
    C62    O108      1.28945      .   S
    C66    N82       1.34940      .   S
    C52    C48       1.50514      .   S
    C52    C53       1.39352      .   S
    H14    C60       1.08777      .   S
    H10    O107      1.04650      .   S
    C48    O101      1.25681      .   S
    C69    H17       1.09145      .   S
    C69    C70       1.39293      .   S
    O107   C51       1.30298      .   S
    C54    C53       1.40645      .   S
    C54    C59       1.48242      .   S
    N82    C70       1.34589      .   S
    O89    C22       1.24032      .   S
    C53    H11       1.08686      .   S
    O88    C22       1.29885      .   S
    C70    C63       1.50294      .   S
    C60    C59       1.40600  1_655   S
    C60    C61       1.38773      .   S
    C22    C29       1.52476      .   S
    C59    C58       1.40640  1_455   S
    C51    C61       1.49372      .   S
    C51    O106      1.24825      .   S
    C61    N81       1.34268      .   S
    C63    O110      1.29872      .   S
    C63    O111      1.24436      .   S
    C29    N77       1.34166      .   S
    C29    C30       1.39833      .   S
    C58    H13       1.09128  1_655   S
    C58    C57       1.39836      .   S
    H3     C30       1.09132  1_655   S
    N77    C33       1.34261      .   S
    N81    C57       1.34169      .   S
    C30    C31       1.44742      .   S
    O95    C35       1.24432      .   S
    C57    C50       1.52481      .   S
    O90    C23       1.24823      .   S
    O94    C35       1.29875      .   S
    C35    C42       1.50293      .   S
    C33    C23       1.49383      .   S
    C33    C32       1.38780      .   S
    C23    O91       1.30298      .   S
    H1     C25       1.08688      .   S
    C31    C32       1.22295      .   S
    C31    C26       1.63692  1_455   S
    C50    O104      1.29890      .   S
    C50    O105      1.24026      .   S
    C32    H4        1.08778      .   S
    C42    N78       1.34587      .   S
    C42    C41       1.39292      .   S
    C25    C26       1.40645      .   S
    C25    C24       1.39350      .   S
    O85    C20       1.25680      .   S
    N78    C38       1.34938      .   S
    C26    C27       1.40512      .   S
    H7     C41       1.09146      .   S
    O91    H0        1.04648      .   S
    C41    C40       1.40497      .   S
    O92    C34       1.28943      .   S
    C20    C24       1.50512      .   S
    C20    O84       1.28947      .   S
    C24    N76       1.34922      .   S
    C38    C34       1.50527      .   S
    C38    C39       1.39355      .   S
    H9     C46       1.08779      .   S
    H5     O99       1.04470      .   S
    C34    O93       1.25694      .   S
    C27    H2        1.09171      .   S
    C27    C28       1.39310      .   S
    O99    C37       1.30305      .   S
    C40    C39       1.40686      .   S
    C40    C45       1.48267      .   S
    N76    C28       1.34609      .   S
    O113   C64       1.24029      .   S
    O112   C64       1.29921      .   S
    C39    H6        1.08704      .   S
    C28    C21       1.50258      .   S
    C46    C45       1.40633  1_655   S
    C46    C47       1.38785      .   S
    C64    C71       1.52398      .   S
    C45    C44       1.40618  1_455   S
    C37    C47       1.49451      .   S
    C37    O98       1.24806      .   S
    C21    O86       1.29826      .   S
    C21    O87       1.24523      .   S
    C71    N83       1.34165      .   S
