# CIF file generated by openbabel 2.4.90, see http://openbabel.sf.net
data_I
_chemical_name_common ''
_cell_length_a 12.19
_cell_length_b 12.328
_cell_length_c 14.117
_cell_angle_alpha 89.884
_cell_angle_beta 68.561
_cell_angle_gamma 89.961
_space_group_name_H-M_alt 'P 1'
_space_group_name_Hall 'P 1'
loop_
    _symmetry_equiv_pos_as_xyz
    x,y,z
loop_
    _atom_site_label
    _atom_site_type_symbol
    _atom_site_fract_x
    _atom_site_fract_y
    _atom_site_fract_z
    _atom_site_occupancy
    N0      N    0.94007   0.77483   0.66152   1.000
    N1      N    0.06029   0.27416   0.83952   1.000
    N2      N    0.06050   0.22511   0.33846   1.000
    N3      N    0.94028   0.72579   0.15789   1.000
    Zr4     Zr   0.42528   0.91984   0.39358   1.000
    O5      O    0.30699   0.85057   0.31929   1.000
    O6      O    0.33886   0.01899   0.36969   1.000
    Zr7     Zr   0.42469   0.57978   0.89341   1.000
    O8      O    0.33842   0.48040   0.87007   1.000
    O9      O    0.30656   0.64942   0.82016   1.000
    Zr10    Zr   0.57473   0.08010   0.60641   1.000
    O11     O    0.69316   0.14937   0.68005   1.000
    O12     O    0.66129   0.98095   0.63029   1.000
    Zr13    Zr   0.57532   0.42016   0.10657   1.000
    O14     O    0.66174   0.51955   0.12926   1.000
    O15     O    0.69358   0.35053   0.17982   1.000
    O16     O    0.31965   0.02536   0.52382   1.000
    O17     O    0.57847   0.86732   0.33273   1.000
    O18     O    0.42168   0.13262   0.66661   1.000
    O19     O    0.31938   0.47468   0.02360   1.000
    O20     O    0.57807   0.63230   0.83340   1.000
    O21     O    0.42209   0.36764   0.16658   1.000
    O22     O    0.71514   0.37513   0.03078   1.000
    O23     O    0.68078   0.52526   0.97637   1.000
    O24     O    0.71487   0.12459   0.53020   1.000
    O25     O    0.68050   0.97458   0.47552   1.000
    O26     O    0.29102   0.87389   0.47144   1.000
    O27     O    0.28681   0.62182   0.96155   1.000
loop_
    _geom_bond_atom_site_label_1
    _geom_bond_atom_site_label_2
    _geom_bond_distance
    _geom_bond_site_symmetry_2
    _ccdc_geom_bond_type
    Zr4    O5        2.24026      .   S
    N3     O5        5.91697  1_655   S
    Zr4    O6        1.72449  1_565   S
    N2     O6        4.38665      .   S
    Zr7    O8        1.72406      .   S
    N1     O8        4.38522      .   S
    Zr7    O9        2.22776      .   S
    N0     O9        5.88695  1_655   S
    Zr10   O11       2.23526      .   S
    N1     O11       5.90353  1_455   S
    Zr10   O12       1.72563  1_545   S
    N0     O12       4.39069      .   S
    Zr13   O14       1.72152      .   S
    N3     O14       4.37901      .   S
    Zr13   O15       2.22917      .   S
    N2     O15       5.89155  1_455   S
    Zr4    O16       2.23777  1_565   S
    N1     O16       5.38586      .   S
    Zr4    O17       1.86331      .   S
    N3     O17       4.54287      .   S
    N1     O18       4.53396      .   S
    Zr10   O18       1.86107      .   S
    Zr7    O19       2.22997  1_556   S
    N2     O19       5.37449      .   S
    Zr7    O20       1.86386      .   S
    N0     O20       4.54019      .   S
    N2     O21       4.53628      .   S
    Zr13   O21       1.86244      .   S
    Zr13   O22       1.73952      .   S
    N1     O22       4.27124  1_456   S
    Zr13   O23       2.23041  1_554   S
    N0     O23       5.37589      .   S
    Zr10   O24       1.74118      .   S
    N2     O24       4.27447  1_455   S
    Zr10   O25       2.24377  1_545   S
    N3     O25       5.40397      .   S
    N0     O26       4.31238  1_655   S
    Zr4    O26       1.70031      .   S
    N3     O27       4.31483  1_654   S
    Zr7    O27       1.68464      .   S
