# CIF file generated by openbabel 2.4.90, see http://openbabel.sf.net
data_I
_chemical_name_common ''
_cell_length_a 12.19
_cell_length_b 12.328
_cell_length_c 14.117
_cell_angle_alpha 89.884
_cell_angle_beta 68.561
_cell_angle_gamma 89.961
_space_group_name_H-M_alt 'P 1'
_space_group_name_Hall 'P 1'
loop_
    _symmetry_equiv_pos_as_xyz
    x,y,z
loop_
    _atom_site_label
    _atom_site_type_symbol
    _atom_site_fract_x
    _atom_site_fract_y
    _atom_site_fract_z
    _atom_site_occupancy
    C0      C    0.42469   0.57978   0.89341   1.000
    C1      C    0.57473   0.08010   0.60641   1.000
    C2      C    0.57532   0.42016   0.10657   1.000
    C3      C    0.42528   0.91984   0.39358   1.000
    C4      C    0.35227   0.77087   0.73427   1.000
    C5      C    0.76885   0.86886   0.62221   1.000
    C6      C    0.91661   0.65839   0.79328   1.000
    C7      C    0.94112   0.85085   0.49561   1.000
    C8      C    0.06618   0.75011   0.73487   1.000
    C9      C    0.64718   0.26779   0.76813   1.000
    C10     C    0.23100   0.36690   0.87975   1.000
    C11     C    0.08352   0.15971   0.70678   1.000
    C12     C    0.05890   0.35124   0.00504   1.000
    C13     C    0.93290   0.24695   0.76763   1.000
    C14     C    0.64773   0.22910   0.26574   1.000
    C15     C    0.23116   0.13110   0.37778   1.000
    C16     C    0.08341   0.34153   0.20667   1.000
    C17     C    0.05890   0.14904   0.50435   1.000
    C18     C    0.93383   0.24988   0.26513   1.000
    C19     C    0.35283   0.73215   0.23187   1.000
    C20     C    0.76902   0.63306   0.12022   1.000
    C21     C    0.91649   0.84026   0.29318   1.000
    C22     C    0.94112   0.64871   0.99494   1.000
    C23     C    0.06711   0.75303   0.23234   1.000
    C24     C    0.53919   0.80880   0.73052   1.000
    C25     C    0.70451   0.58221   0.91964   1.000
    C26     C    0.16339   0.90703   0.35890   1.000
    C27     C    0.29897   0.79261   0.61969   1.000
    C28     C    0.65151   0.76849   0.73961   1.000
    C29     C    0.76244   0.80761   0.67948   1.000
    C30     C    0.86276   0.76570   0.69355   1.000
    C31     C    0.84451   0.69271   0.77447   1.000
    C32     C    0.73028   0.65845   0.83096   1.000
    C33     C    0.12620   0.85938   0.46581   1.000
    C34     C    0.00935   0.83661   0.52714   1.000
    C35     C    0.00000   0.79592   0.62605   1.000
    C36     C    0.07826   0.78117   0.65954   1.000
    C37     C    0.19163   0.80495   0.59323   1.000
    C38     C    0.46074   0.30795   0.77055   1.000
    C39     C    0.29538   0.08538   0.57927   1.000
    C40     C    0.83687   0.40695   0.14163   1.000
    C41     C    0.70021   0.28889   0.88299   1.000
    C42     C    0.34840   0.26821   0.76121   1.000
    C43     C    0.23740   0.30659   0.82190   1.000
    C44     C    0.13707   0.26517   0.80759   1.000
    C45     C    0.15550   0.19350   0.72595   1.000
    C46     C    0.26977   0.16003   0.66883   1.000
    C47     C    0.87368   0.35816   0.03543   1.000
    C48     C    0.99053   0.33573   0.97399   1.000
    C49     C    0.01584   0.29451   0.87545   1.000
    C50     C    0.92115   0.27848   0.84263   1.000
    C51     C    0.80775   0.30179   0.90910   1.000
    C52     C    0.46081   0.19113   0.26946   1.000
    C53     C    0.29548   0.41777   0.08037   1.000
    C54     C    0.83661   0.09292   0.64110   1.000
    C55     C    0.70106   0.20732   0.38029   1.000
    C56     C    0.34850   0.23143   0.26035   1.000
    C57     C    0.23756   0.19232   0.32048   1.000
    C58     C    0.13725   0.23424   0.30642   1.000
    C59     C    0.15550   0.30729   0.22554   1.000
    C60     C    0.26973   0.34150   0.16903   1.000
    C61     C    0.87382   0.14050   0.53416   1.000
    C62     C    0.99066   0.16333   0.47284   1.000
    C63     C    0.01613   0.20403   0.37394   1.000
    C64     C    0.92176   0.21880   0.34046   1.000
    C65     C    0.80839   0.19500   0.40675   1.000
    C66     C    0.53928   0.69201   0.22943   1.000
    C67     C    0.70464   0.91456   0.42072   1.000
    C68     C    0.16314   0.59301   0.85835   1.000
    C69     C    0.29981   0.71105   0.11700   1.000
    C70     C    0.65162   0.73175   0.23876   1.000
    C71     C    0.76261   0.69339   0.17805   1.000
    C72     C    0.86294   0.73478   0.19239   1.000
    C73     C    0.84451   0.80641   0.27405   1.000
    C74     C    0.73024   0.83990   0.33117   1.000
    C75     C    0.12633   0.64181   0.96455   1.000
    C76     C    0.00949   0.66422   0.00000   1.000
    C77     C    0.00000   0.70545   0.12453   1.000
    C78     C    0.07887   0.72145   0.15736   1.000
    C79     C    0.19227   0.69814   0.09088   1.000
    C80     C    0.63547   0.69098   0.81104   1.000
    C81     C    0.21529   0.84233   0.49841   1.000
    C82     C    0.36457   0.19193   0.68894   1.000
    C83     C    0.78434   0.33991   0.00348   1.000
    C84     C    0.36454   0.30895   0.18892   1.000
    C85     C    0.78474   0.15755   0.50155   1.000
    C86     C    0.63545   0.80802   0.31105   1.000
    C87     C    0.21568   0.66004   0.99650   1.000
    C88     C    0.44891   0.74680   0.77123   1.000
    C89     C    0.53654   0.89744   0.68728   1.000
    C90     C    0.60640   0.52873   0.94315   1.000
    C91     C    0.77258   0.57444   0.96703   1.000
    C92     C    0.27358   0.93538   0.32133   1.000
    C93     C    0.08956   0.91568   0.31784   1.000
    C94     C    0.39887   0.79576   0.55124   1.000
    C95     C    0.27664   0.78189   0.71681   1.000
    C96     C    0.55102   0.24615   0.72932   1.000
    C97     C    0.46329   0.39594   0.81451   1.000
    C98     C    0.39392   0.03230   0.55468   1.000
    C99     C    0.22659   0.07848   0.53261   1.000
    C100    C    0.72676   0.43567   0.17903   1.000
    C101    C    0.91111   0.41643   0.18214   1.000
    C102    C    0.60038   0.29223   0.95149   1.000
    C103    C    0.72255   0.27771   0.78594   1.000
    C104    C    0.55107   0.25317   0.22880   1.000
    C105    C    0.46348   0.10249   0.31270   1.000
    C106    C    0.39363   0.47121   0.05683   1.000
    C107    C    0.22743   0.42551   0.03296   1.000
    C108    C    0.72640   0.06459   0.67868   1.000
    C109    C    0.91044   0.08427   0.68216   1.000
    C110    C    0.60116   0.20420   0.44875   1.000
    C111    C    0.72338   0.21808   0.28317   1.000
    C112    C    0.44899   0.75379   0.27067   1.000
    C113    C    0.53674   0.60400   0.18548   1.000
    C114    C    0.60610   0.96764   0.44528   1.000
    C115    C    0.77343   0.92150   0.46738   1.000
    C116    C    0.27326   0.56430   0.82092   1.000
    C117    C    0.08891   0.58357   0.81783   1.000
    C118    C    0.39964   0.70771   0.00000   1.000
    C119    C    0.27746   0.72225   0.21405   1.000
    O120    O    0.34972   0.70938   0.05850   1.000
    O121    O    0.41217   0.64374   0.94670   1.000
    O122    O    0.00474   0.68484   0.06227   1.000
    O123    O    0.06791   0.65302   0.98228   1.000
    O124    O    0.97530   0.65647   0.99747   1.000
    O125    O    0.82901   0.34903   0.01945   1.000
    O126    O    0.67983   0.38004   0.05502   1.000
    O127    O    0.79605   0.32085   0.95629   1.000
    O128    O    0.02472   0.34349   0.98951   1.000
    O129    O    0.26146   0.42164   0.05666   1.000
    O130    O    0.32606   0.50264   0.96318   1.000
    O131    O    0.85528   0.38255   0.08853   1.000
    O132    O    0.93211   0.34695   0.00471   1.000
    O133    O    0.34456   0.44449   0.06860   1.000
    O134    O    0.40916   0.52550   0.97512   1.000
    O135    O    0.28261   0.37963   0.12470   1.000
    O136    O    0.24604   0.70460   0.10394   1.000
    O137    O    0.13557   0.70980   0.12412   1.000
    O138    O    0.20397   0.67909   0.04369   1.000
    O139    O    0.65104   0.42792   0.14280   1.000
    O140    O    0.55603   0.51208   0.14602   1.000
    O141    O    0.46993   0.36456   0.14775   1.000
    O142    O    0.56319   0.33667   0.16768   1.000
    O143    O    0.59086   0.47445   0.02486   1.000
    O144    O    0.58785   0.35620   0.02903   1.000
    O145    O    0.67395   0.49730   0.03680   1.000
    O146    O    0.28863   0.71665   0.16553   1.000
    O147    O    0.76582   0.66322   0.14913   1.000
    O148    O    0.03943   0.71345   0.14094   1.000
    O149    O    0.93147   0.72012   0.15846   1.000
    O150    O    0.78182   0.42131   0.16033   1.000
    O151    O    0.87399   0.41169   0.16188   1.000
    O152    O    0.07299   0.73724   0.19485   1.000
    O153    O    0.31714   0.32523   0.17898   1.000
    O154    O    0.21262   0.32439   0.19729   1.000
    O155    O    0.81278   0.71409   0.18522   1.000
    O156    O    0.70712   0.71257   0.20840   1.000
    O157    O    0.53801   0.64801   0.20745   1.000
    O158    O    0.35652   0.27019   0.22464   1.000
    O159    O    0.85372   0.77060   0.23322   1.000
    O160    O    0.11945   0.32441   0.21611   1.000
    O161    O    0.31515   0.72720   0.22296   1.000
    O162    O    0.14637   0.27076   0.26598   1.000
    O163    O    0.50594   0.22215   0.24913   1.000
    O164    O    0.59545   0.71188   0.23409   1.000
    O165    O    0.49414   0.72290   0.25005   1.000
    O166    O    0.64353   0.76988   0.27490   1.000
    O167    O    0.40466   0.21128   0.26490   1.000
    O168    O    0.29303   0.21188   0.29042   1.000
    O169    O    0.92779   0.23434   0.30280   1.000
    O170    O    0.68555   0.22359   0.27446   1.000
    O171    O    0.46215   0.14681   0.29108   1.000
    O172    O    0.43713   0.83681   0.33213   1.000
    O173    O    0.88050   0.82334   0.28362   1.000
    O174    O    0.78738   0.82315   0.30261   1.000
    O175    O    0.71222   0.21270   0.33173   1.000
    O176    O    0.18740   0.21328   0.31345   1.000
    O177    O    0.07669   0.21914   0.34018   1.000
    O178    O    0.68285   0.82396   0.32111   1.000
    O179    O    0.53036   0.86393   0.35231   1.000
    O180    O    0.44438   0.01116   0.35314   1.000
    O181    O    0.12647   0.91136   0.33837   1.000
    O182    O    0.23436   0.16171   0.34913   1.000
    O183    O    0.21849   0.92121   0.34012   1.000
    O184    O    0.34943   0.92761   0.35746   1.000
    O185    O    0.71744   0.87723   0.37595   1.000
    O186    O    0.96894   0.21142   0.35720   1.000
    O187    O    0.86507   0.20690   0.37361   1.000
    O188    O    0.14479   0.88321   0.41235   1.000
    O189    O    0.00340   0.18368   0.42339   1.000
    O190    O    0.75472   0.20116   0.39352   1.000
    O191    O    0.65111   0.20576   0.41452   1.000
    O192    O    0.32028   0.88108   0.44600   1.000
    O193    O    0.41208   0.85780   0.47241   1.000
    O194    O    0.40960   0.97607   0.47413   1.000
    O195    O    0.79656   0.17627   0.45415   1.000
    O196    O    0.65537   0.94110   0.43300   1.000
    O197    O    0.73903   0.91803   0.44405   1.000
    O198    O    0.59042   0.02387   0.52584   1.000
    O199    O    0.58794   0.14215   0.52758   1.000
    O200    O    0.17074   0.85085   0.48211   1.000
    O201    O    0.06778   0.84799   0.49648   1.000
    O202    O    0.02478   0.15618   0.48860   1.000
    O203    O    0.93224   0.15191   0.50350   1.000
    O204    O    0.97524   0.84373   0.51138   1.000
    O205    O    0.20346   0.82364   0.54582   1.000
    O206    O    0.82928   0.14902   0.51785   1.000
    O207    O    0.67974   0.11882   0.55398   1.000
    O208    O    0.00468   0.81626   0.57660   1.000
    O209    O    0.26098   0.08193   0.55594   1.000
    O210    O    0.85522   0.11671   0.58763   1.000
    O211    O    0.34892   0.79418   0.58546   1.000
    O212    O    0.34465   0.05884   0.56697   1.000
    O213    O    0.28257   0.12270   0.62405   1.000
    O214    O    0.24530   0.79878   0.60646   1.000
    O215    O    0.13494   0.79306   0.62638   1.000
    O216    O    0.65057   0.07235   0.64254   1.000
    O217    O    0.55563   0.98877   0.64684   1.000
    O218    O    0.46965   0.13601   0.64767   1.000
    O219    O    0.56287   0.16312   0.66787   1.000
    O220    O    0.28780   0.78725   0.66825   1.000
    O221    O    0.76565   0.83824   0.65085   1.000
    O222    O    0.03913   0.78855   0.64279   1.000
    O223    O    0.93138   0.78081   0.65980   1.000
    O224    O    0.78151   0.07876   0.65989   1.000
    O225    O    0.87353   0.08859   0.66163   1.000
    O226    O    0.07222   0.76564   0.69720   1.000
    O227    O    0.31717   0.17598   0.67889   1.000
    O228    O    0.21264   0.17676   0.69739   1.000
    O229    O    0.81260   0.78666   0.68651   1.000
    O230    O    0.70698   0.78805   0.70955   1.000
    O231    O    0.53787   0.85312   0.70890   1.000
    O232    O    0.35648   0.23007   0.72507   1.000
    O233    O    0.85363   0.72921   0.73401   1.000
    O234    O    0.11951   0.17661   0.71636   1.000
    O235    O    0.31445   0.77638   0.72554   1.000
    O236    O    0.14629   0.22933   0.76677   1.000
    O237    O    0.50588   0.27705   0.74994   1.000
    O238    O    0.59535   0.78865   0.73507   1.000
    O239    O    0.49405   0.77780   0.75088   1.000
    O240    O    0.64349   0.72973   0.77533   1.000
    O241    O    0.40457   0.28808   0.76588   1.000
    O242    O    0.29290   0.28740   0.79156   1.000
    O243    O    0.92703   0.26272   0.80513   1.000
    O244    O    0.68486   0.27275   0.77704   1.000
    O245    O    0.46201   0.35195   0.79253   1.000
    O246    O    0.43680   0.66329   0.83232   1.000
    O247    O    0.88056   0.67555   0.78387   1.000
    O248    O    0.78740   0.67558   0.80271   1.000
    O249    O    0.71138   0.28330   0.83447   1.000
    O250    O    0.18724   0.28588   0.81475   1.000
    O251    O    0.07646   0.27984   0.84152   1.000
    O252    O    0.68288   0.67472   0.82100   1.000
    O253    O    0.53009   0.63538   0.85222   1.000
    O254    O    0.44399   0.48786   0.85396   1.000
    O255    O    0.12602   0.58829   0.83809   1.000
    O256    O    0.21820   0.57866   0.83964   1.000
    O257    O    0.34898   0.57204   0.85716   1.000
    O258    O    0.23420   0.33675   0.85083   1.000
    O259    O    0.71740   0.62033   0.87530   1.000
    O260    O    0.96849   0.28650   0.85904   1.000
    O261    O    0.86445   0.29014   0.87587   1.000
    O262    O    0.14474   0.61741   0.91145   1.000
    O263    O    0.00319   0.31512   0.92472   1.000
    O264    O    0.75398   0.29534   0.89604   1.000
    O265    O    0.65030   0.29056   0.91724   1.000
    O266    O    0.32019   0.61991   0.94495   1.000
    O267    O    0.65545   0.55547   0.93139   1.000
    O268    O    0.73855   0.57832   0.94334   1.000
    O269    O    0.17101   0.65092   0.98053   1.000
    O270    O    0.51554   0.55425   0.91828   1.000
    O271    O    0.48433   0.05620   0.58054   1.000
    O272    O    0.32594   0.99916   0.46309   1.000
    O273    O    0.48447   0.44569   0.08170   1.000
    O274    O    0.51569   0.94374   0.41943   1.000
    O275    O    0.67408   0.00080   0.53689   1.000
loop_
    _geom_bond_atom_site_label_1
    _geom_bond_atom_site_label_2
    _geom_bond_distance
    _geom_bond_site_symmetry_2
    _ccdc_geom_bond_type
    C118   O120      0.82790      .   S
    C69    O120      0.82790      .   S
    C118   O121      1.06276  1_554   S
    C0     O121      1.06276      .   S
    C76    O122      0.89682      .   S
    C77    O122      0.89682      .   S
    C76    O123      0.67724  1_554   S
    C75    O123      0.67724      .   S
    C76    O124      0.44159  1_454   S
    C22    O124      0.44159      .   S
    C83    O125      0.67078      .   S
    C47    O125      0.67078      .   S
    C83    O126      1.31154      .   S
    C2     O126      1.31154      .   S
    C83    O127      0.67115  1_554   S
    C51    O127      0.67115      .   S
    C12    O128      0.54564  1_554   S
    C48    O128      0.54564  1_655   S
    C107   O129      0.62261      .   S
    C53    O129      0.62261      .   S
    C107   O130      1.56593  1_554   S
    C0     O130      1.56593      .   S
    C47    O131      0.76198      .   S
    C40    O131      0.76198      .   S
    C47    O132      0.69911      .   S
    C48    O132      0.69911  1_556   S
    C106   O133      0.64912      .   S
    C53    O133      0.64912      .   S
    C106   O134      1.28517  1_554   S
    C0     O134      1.28517      .   S
    C53    O135      0.75127      .   S
    C60    O135      0.75127      .   S
    C79    O136      0.74727      .   S
    C69    O136      0.74727      .   S
    C79    O137      0.69398      .   S
    C78    O137      0.69398      .   S
    C79    O138      0.67111      .   S
    C87    O138      0.67111  1_556   S
    C2     O139      1.21170      .   S
    C100   O139      1.21170      .   S
    C2     O140      1.24742      .   S
    C113   O140      1.24742      .   S
    C2     O141      1.38271      .   S
    C84    O141      1.38271      .   S
    C2     O142      1.31494      .   S
    C104   O142      1.31494      .   S
    C2     O143      1.28516      .   S
    C90    O143      1.28516  1_556   S
    C2     O144      1.31317      .   S
    C102   O144      1.31317  1_556   S
    C2     O145      1.56588      .   S
    C91    O145      1.56588  1_556   S
    C69    O146      0.65153      .   S
    C119   O146      0.65153      .   S
    C20    O147      0.54352      .   S
    C71    O147      0.54352      .   S
    C77    O148      0.61325      .   S
    C78    O148      0.61325      .   S
    C77    O149      0.81708  1_455   S
    C72    O149      0.81708      .   S
    C40    O150      0.64959      .   S
    C100   O150      0.64959      .   S
    C40    O151      0.62015      .   S
    C101   O151      0.62015      .   S
    C78    O152      0.54390      .   S
    C23    O152      0.54390      .   S
    C60    O153      0.67304      .   S
    C84    O153      0.67304      .   S
    C60    O154      0.69653      .   S
    C59    O154      0.69653      .   S
    C71    O155      0.70342      .   S
    C72    O155      0.70342      .   S
    C71    O156      0.69677      .   S
    C70    O156      0.69677      .   S
    C113   O157      0.62848      .   S
    C66    O157      0.62848      .   S
    C84    O158      0.67461      .   S
    C56    O158      0.67461      .   S
    C72    O159      0.70247      .   S
    C73    O159      0.70247      .   S
    C16    O160      0.54585      .   S
    C59    O160      0.54585      .   S
    C119   O161      0.52234      .   S
    C19    O161      0.52234      .   S
    C59    O162      0.70256      .   S
    C58    O162      0.70256      .   S
    C104   O163      0.64473      .   S
    C52    O163      0.64473      .   S
    C66    O164      0.75261      .   S
    C70    O164      0.75261      .   S
    C66    O165      0.64472      .   S
    C112   O165      0.64472      .   S
    C70    O166      0.67470      .   S
    C86    O166      0.67470      .   S
    C56    O167      0.75257      .   S
    C52    O167      0.75257      .   S
    C56    O168      0.69676      .   S
    C57    O168      0.69676      .   S
    C18    O169      0.54388      .   S
    C64    O169      0.54388      .   S
    C14    O170      0.52325      .   S
    C111   O170      0.52325      .   S
    C52    O171      0.62840      .   S
    C105   O171      0.62840      .   S
    C112   O172      1.31637      .   S
    C3     O172      1.31637      .   S
    C73    O173      0.54573      .   S
    C21    O173      0.54573      .   S
    C73    O174      0.69646      .   S
    C74    O174      0.69646      .   S
    C111   O175      0.65149      .   S
    C55    O175      0.65149      .   S
    C58    O176      0.70323      .   S
    C57    O176      0.70323      .   S
    C58    O177      0.74121      .   S
    C63    O177      0.74121      .   S
    C86    O178      0.67294      .   S
    C74    O178      0.67294      .   S
    C86    O179      1.38212      .   S
    C3     O179      1.38212      .   S
    C105   O180      1.24431      .   S
    C3     O180      1.24431  1_565   S
    C93    O181      0.62016      .   S
    C26    O181      0.62016      .   S
    C57    O182      0.54343      .   S
    C15    O182      0.54343      .   S
    C92    O183      0.64943      .   S
    C26    O183      0.64943      .   S
    C92    O184      1.21179      .   S
    C3     O184      1.21179      .   S
    C74    O185      0.75147      .   S
    C67    O185      0.75147      .   S
    C64    O186      0.70300      .   S
    C63    O186      0.70300  1_455   S
    C64    O187      0.69387      .   S
    C65    O187      0.69387      .   S
    C26    O188      0.76238      .   S
    C33    O188      0.76238      .   S
    C63    O189      0.70320      .   S
    C62    O189      0.70320  1_655   S
    C55    O190      0.74686      .   S
    C65    O190      0.74686      .   S
    C55    O191      0.62413      .   S
    C110   O191      0.62413      .   S
    C3     O192      1.31188      .   S
    C81    O192      1.31188      .   S
    C3     O193      1.30958      .   S
    C94    O193      1.30958      .   S
    C3     O194      1.28619      .   S
    C98    O194      1.28619  1_545   S
    C65    O195      0.67134      .   S
    C85    O195      0.67134      .   S
    C67    O196      0.64936      .   S
    C114   O196      0.64936      .   S
    C67    O197      0.62218      .   S
    C115   O197      0.62218      .   S
    C114   O198      1.28630  1_565   S
    C1     O198      1.28630      .   S
    C110   O199      1.30965      .   S
    C1     O199      1.30965      .   S
    C33    O200      0.67083      .   S
    C81    O200      0.67083      .   S
    C33    O201      0.69917      .   S
    C34    O201      0.69917      .   S
    C62    O202      0.54564  1_655   S
    C17    O202      0.54564      .   S
    C62    O203      0.69918      .   S
    C61    O203      0.69918      .   S
    C7     O204      0.54566      .   S
    C34    O204      0.54566  1_455   S
    C81    O205      0.67130      .   S
    C37    O205      0.67130      .   S
    C85    O206      0.67084      .   S
    C61    O206      0.67084      .   S
    C85    O207      1.31187      .   S
    C1     O207      1.31187      .   S
    C34    O208      0.72371      .   S
    C35    O208      0.72371      .   S
    C99    O209      0.62216      .   S
    C39    O209      0.62216      .   S
    C61    O210      0.76240      .   S
    C54    O210      0.76240      .   S
    C94    O211      0.62411      .   S
    C27    O211      0.62411      .   S
    C98    O212      0.64938      .   S
    C39    O212      0.64938      .   S
    C39    O213      0.75147      .   S
    C46    O213      0.75147      .   S
    C37    O214      0.74692      .   S
    C27    O214      0.74692      .   S
    C37    O215      0.69390      .   S
    C36    O215      0.69390      .   S
    C1     O216      1.21178      .   S
    C108   O216      1.21178      .   S
    C1     O217      1.24431  1_545   S
    C89    O217      1.24431      .   S
    C1     O218      1.38213      .   S
    C82    O218      1.38213      .   S
    C1     O219      1.31642      .   S
    C96    O219      1.31642      .   S
    C27    O220      0.65149      .   S
    C95    O220      0.65149      .   S
    C5     O221      0.54344      .   S
    C29    O221      0.54344      .   S
    C35    O222      0.61147      .   S
    C36    O222      0.61147      .   S
    C35    O223      0.81846  1_455   S
    C30    O223      0.81846      .   S
    C54    O224      0.64945      .   S
    C108   O224      0.64945      .   S
    C54    O225      0.62013      .   S
    C109   O225      0.62013      .   S
    C36    O226      0.54389      .   S
    C8     O226      0.54389      .   S
    C46    O227      0.67293      .   S
    C82    O227      0.67293      .   S
    C46    O228      0.69646      .   S
    C45    O228      0.69646      .   S
    C29    O229      0.70323      .   S
    C30    O229      0.70323      .   S
    C29    O230      0.69675      .   S
    C28    O230      0.69675      .   S
    C89    O231      0.62840      .   S
    C24    O231      0.62840      .   S
    C82    O232      0.67469      .   S
    C42    O232      0.67469      .   S
    C30    O233      0.70256      .   S
    C31    O233      0.70256      .   S
    C11    O234      0.54573      .   S
    C45    O234      0.54573      .   S
    C95    O235      0.52324      .   S
    C4     O235      0.52324      .   S
    C45    O236      0.70248      .   S
    C44    O236      0.70248      .   S
    C96    O237      0.64471      .   S
    C38    O237      0.64471      .   S
    C24    O238      0.75256      .   S
    C28    O238      0.75256      .   S
    C24    O239      0.64473      .   S
    C88    O239      0.64473      .   S
    C28    O240      0.67461      .   S
    C80    O240      0.67461      .   S
    C42    O241      0.75264      .   S
    C38    O241      0.75264      .   S
    C42    O242      0.69678      .   S
    C43    O242      0.69678      .   S
    C13    O243      0.54389      .   S
    C50    O243      0.54389      .   S
    C9     O244      0.52235      .   S
    C103   O244      0.52235      .   S
    C38    O245      0.62847      .   S
    C97    O245      0.62847      .   S
    C88    O246      1.31486      .   S
    C0     O246      1.31486      .   S
    C31    O247      0.54585      .   S
    C6     O247      0.54585      .   S
    C31    O248      0.69655      .   S
    C32    O248      0.69655      .   S
    C103   O249      0.65153      .   S
    C41    O249      0.65153      .   S
    C44    O250      0.70343      .   S
    C43    O250      0.70343      .   S
    C44    O251      0.74134      .   S
    C49    O251      0.74134      .   S
    C80    O252      0.67305      .   S
    C32    O252      0.67305      .   S
    C80    O253      1.38270      .   S
    C0     O253      1.38270      .   S
    C97    O254      1.24735      .   S
    C0     O254      1.24735      .   S
    C117   O255      0.62014      .   S
    C68    O255      0.62014      .   S
    C116   O256      0.64961      .   S
    C68    O256      0.64961      .   S
    C116   O257      1.21174      .   S
    C0     O257      1.21174      .   S
    C43    O258      0.54352      .   S
    C10    O258      0.54352      .   S
    C32    O259      0.75129      .   S
    C25    O259      0.75129      .   S
    C50    O260      0.70316      .   S
    C49    O260      0.70316  1_455   S
    C50    O261      0.69393      .   S
    C51    O261      0.69393      .   S
    C68    O262      0.76199      .   S
    C75    O262      0.76199      .   S
    C49    O263      0.70309      .   S
    C48    O263      0.70309  1_655   S
    C41    O264      0.74725      .   S
    C51    O264      0.74725      .   S
    C41    O265      0.62403      .   S
    C102   O265      0.62403      .   S
    C0     O266      1.31154      .   S
    C87    O266      1.31154      .   S
    C25    O267      0.64913      .   S
    C90    O267      0.64913      .   S
    C25    O268      0.62261      .   S
    C91    O268      0.62261      .   S
    C75    O269      0.67083      .   S
    C87    O269      0.67083      .   S
    C90    O270      1.31608      .   S
    C0     O270      1.31608      .   S
    C98    O271      1.31513      .   S
    C1     O271      1.31513      .   S
    C99    O272      1.58723  1_545   S
    C3     O272      1.58723      .   S
    C106   O273      1.31603      .   S
    C2     O273      1.31603      .   S
    C114   O274      1.31512      .   S
    C3     O274      1.31512      .   S
    C115   O275      1.58713  1_565   S
    C1     O275      1.58713      .   S
