# CIF file generated by openbabel 2.4.90, see http://openbabel.sf.net
data_I
_chemical_name_common ''
_cell_length_a 12.19
_cell_length_b 12.328
_cell_length_c 14.117
_cell_angle_alpha 89.884
_cell_angle_beta 68.561
_cell_angle_gamma 89.961
_space_group_name_H-M_alt 'P 1'
_space_group_name_Hall 'P 1'
loop_
    _symmetry_equiv_pos_as_xyz
    x,y,z
loop_
    _atom_site_label
    _atom_site_type_symbol
    _atom_site_fract_x
    _atom_site_fract_y
    _atom_site_fract_z
    _atom_site_occupancy
    N0      N    0.94007   0.77483   0.66152   1.000
    N1      N    0.06029   0.27416   0.83952   1.000
    N2      N    0.06050   0.22511   0.33846   1.000
    N3      N    0.94028   0.72579   0.15789   1.000
    Zr4     Zr   0.42528   0.91984   0.39358   1.000
    O5      O    0.30699   0.85057   0.31929   1.000
    O6      O    0.57663   0.87730   0.34112   1.000
    O7      O    0.28501   0.88553   0.45154   1.000
    O8      O    0.30920   0.02825   0.52244   1.000
    O9      O    0.33011   0.02248   0.52520   1.000
    O10     O    0.33886   0.01899   0.36969   1.000
    O11     O    0.58030   0.85735   0.32434   1.000
    O12     O    0.27773   0.87390   0.47367   1.000
    O13     O    0.30068   0.86808   0.48027   1.000
    Zr14    Zr   0.42469   0.57978   0.89341   1.000
    O15     O    0.30046   0.63227   0.97285   1.000
    O16     O    0.33842   0.48040   0.87007   1.000
    O17     O    0.30899   0.47183   0.02211   1.000
    O18     O    0.32976   0.47754   0.02510   1.000
    O19     O    0.57989   0.64244   0.82514   1.000
    O20     O    0.30656   0.64942   0.82016   1.000
    O21     O    0.28466   0.61435   0.95047   1.000
    O22     O    0.57625   0.62216   0.84165   1.000
    O23     O    0.27746   0.62631   0.97241   1.000
    Zr24    Zr   0.57473   0.08010   0.60641   1.000
    O25     O    0.69095   0.97170   0.47690   1.000
    O26     O    0.41985   0.14259   0.67500   1.000
    O27     O    0.67004   0.97747   0.47414   1.000
    O28     O    0.42352   0.12264   0.65822   1.000
    O29     O    0.69316   0.14937   0.68005   1.000
    O30     O    0.72243   0.12603   0.52631   1.000
    O31     O    0.69948   0.13187   0.51971   1.000
    O32     O    0.71513   0.11441   0.54845   1.000
    O33     O    0.66129   0.98095   0.63029   1.000
    Zr34    Zr   0.57532   0.42016   0.10657   1.000
    O35     O    0.72269   0.37363   0.02692   1.000
    O36     O    0.66174   0.51955   0.12926   1.000
    O37     O    0.69969   0.36767   0.02042   1.000
    O38     O    0.71549   0.38560   0.04886   1.000
    O39     O    0.42027   0.35750   0.17484   1.000
    O40     O    0.42390   0.37778   0.15832   1.000
    O41     O    0.69358   0.35053   0.17982   1.000
    O42     O    0.67039   0.52240   0.97488   1.000
    O43     O    0.69116   0.52811   0.97786   1.000
loop_
    _geom_bond_atom_site_label_1
    _geom_bond_atom_site_label_2
    _geom_bond_distance
    _geom_bond_site_symmetry_2
    _ccdc_geom_bond_type
    Zr4    O5        2.24026      .   S
    N3     O5        5.91697  1_655   S
    Zr4    O6        1.79688      .   S
    N3     O6        4.63201      .   S
    Zr4    O7        1.65793      .   S
    N0     O7        4.38299  1_655   S
    Zr4    O8        2.28548  1_565   S
    N1     O8        5.34294      .   S
    Zr4    O9        2.19800  1_565   S
    N1     O9        5.43207      .   S
    Zr4    O10       1.72449  1_565   S
    N2     O10       4.38665      .   S
    Zr4    O11       1.94180      .   S
    N3     O11       4.45817      .   S
    Zr4    O12       1.82933      .   S
    N0     O12       4.18099  1_655   S
    Zr4    O13       1.68860      .   S
    N0     O13       4.35481  1_655   S
    Zr14   O15       1.65233      .   S
    N3     O15       4.36480  1_654   S
    Zr14   O16       1.72406      .   S
    N1     O16       4.38522      .   S
    Zr14   O17       2.27622  1_556   S
    N2     O17       5.33280      .   S
    Zr14   O18       2.19174  1_556   S
    N2     O18       5.41950      .   S
    Zr14   O19       1.94179      .   S
    N0     O19       4.45614      .   S
    Zr14   O20       2.22776      .   S
    N0     O20       5.88695  1_655   S
    Zr14   O21       1.65518      .   S
    N3     O21       4.37126  1_654   S
    Zr14   O22       1.79804      .   S
    N0     O22       4.62872      .   S
    Zr14   O23       1.82542      .   S
    N3     O23       4.17053  1_654   S
    Zr24   O25       2.29117  1_545   S
    N3     O25       5.36144      .   S
    Zr24   O26       1.93917      .   S
    N1     O26       4.44973      .   S
    Zr24   O27       2.20431  1_545   S
    N3     O27       5.44980      .   S
    Zr24   O28       1.79509      .   S
    N1     O28       4.62266      .   S
    Zr24   O29       2.23526      .   S
    N1     O29       5.90353  1_455   S
    Zr24   O30       1.83063      .   S
    N2     O30       4.18485  1_455   S
    Zr24   O31       1.68973      .   S
    N2     O31       4.35886  1_455   S
    Zr24   O32       1.65937      .   S
    N2     O32       4.38668  1_455   S
    Zr24   O33       1.72563  1_545   S
    N0     O33       4.39069      .   S
    Zr34   O35       1.82897      .   S
    N1     O35       4.18162  1_456   S
    Zr34   O36       1.72152      .   S
    N3     O36       4.37901      .   S
    Zr34   O37       1.68831      .   S
    N1     O37       4.35560  1_456   S
    Zr34   O38       1.65761      .   S
    N1     O38       4.38353  1_456   S
    Zr34   O39       1.94045      .   S
    N2     O39       4.45212      .   S
    Zr34   O40       1.79654      .   S
    N2     O40       4.62491      .   S
    Zr34   O41       2.22917      .   S
    N2     O41       5.89155  1_455   S
    Zr34   O42       2.19209  1_554   S
    N0     O42       5.42100      .   S
    Zr34   O43       2.27674  1_554   S
    N0     O43       5.33409      .   S
