# CIF file generated by openbabel 2.4.90, see http://openbabel.sf.net
data_I
_chemical_name_common ''
_cell_length_a 10.1035
_cell_length_b 11.5595
_cell_length_c 14.892
_cell_angle_alpha 91.046
_cell_angle_beta 90.032
_cell_angle_gamma 90.037
_space_group_name_H-M_alt 'P 1'
_space_group_name_Hall 'P 1'
loop_
    _symmetry_equiv_pos_as_xyz
    x,y,z
loop_
    _atom_site_label
    _atom_site_type_symbol
    _atom_site_fract_x
    _atom_site_fract_y
    _atom_site_fract_z
    _atom_site_occupancy
    Zn0     Zn   0.88250   0.25930   0.69127   1.000
    Zn1     Zn   0.57171   0.25471   0.62959   1.000
    Zn2     Zn   0.38248   0.24049   0.80865   1.000
    Zn3     Zn   0.92822   0.75474   0.12964   1.000
    Zn4     Zn   0.11750   0.74069   0.30875   1.000
    Zn5     Zn   0.42829   0.74528   0.37044   1.000
    Zn6     Zn   0.61752   0.75950   0.19137   1.000
    Zn7     Zn   0.00000   0.50001   1.00000   1.000
    Zn8     Zn   0.50000   0.99999   0.50001   1.000
    Zn9     Zn   1.00000   0.00000   0.00000   1.000
    Zn10    Zn   0.50000   0.50000   0.50001   1.000
    Zn11    Zn   0.07177   0.24525   0.87038   1.000
