# CIF file generated by openbabel 2.4.90, see http://openbabel.sf.net
data_I
_chemical_name_common ''
_cell_length_a 13.167
_cell_length_b 13.258
_cell_length_c 22.407
_cell_angle_alpha 89.986
_cell_angle_beta 89.981
_cell_angle_gamma 102.493
_space_group_name_H-M_alt 'P 1'
_space_group_name_Hall 'P 1'
loop_
    _symmetry_equiv_pos_as_xyz
    x,y,z
loop_
    _atom_site_label
    _atom_site_type_symbol
    _atom_site_fract_x
    _atom_site_fract_y
    _atom_site_fract_z
    _atom_site_occupancy
    C0      C    0.22689   0.11916   0.82830   1.000
    C1      C    0.25316   0.14554   0.95348   1.000
    C2      C    0.77315   0.88080   0.32836   1.000
    C3      C    0.74681   0.85435   0.45348   1.000
    C4      C    0.10427   0.97727   0.73370   1.000
    C5      C    0.09863   0.96926   0.62251   1.000
    C6      C    0.33680   0.25026   0.61980   1.000
    C7      C    0.33210   0.24777   0.73000   1.000
    C8      C    0.48028   0.10864   0.45139   1.000
    C9      C    0.48764   0.11889   0.33940   1.000
    C10     C    0.97783   0.13198   0.33235   1.000
    C11     C    0.97195   0.12521   0.44374   1.000
    C12     C    0.36646   0.27208   0.16615   1.000
    C13     C    0.37014   0.27298   0.05432   1.000
    C14     C    0.13285   0.01057   0.04557   1.000
    C15     C    0.12050   0.99760   0.15640   1.000
    C16     C    0.23628   0.43293   0.77817   1.000
    C17     C    0.22742   0.61763   0.76460   1.000
    C18     C    0.27029   0.47654   0.96729   1.000
    C19     C    0.22473   0.78982   0.80936   1.000
    C20     C    0.26330   0.83445   0.99839   1.000
    C21     C    0.27622   0.65090   0.01150   1.000
    C22     C    0.90334   0.12425   0.81485   1.000
    C23     C    0.75251   0.15172   0.01696   1.000
    C24     C    0.93819   0.13835   0.00000   1.000
    C25     C    0.73179   0.12940   0.76854   1.000
    C26     C    0.54491   0.13566   0.78053   1.000
    C27     C    0.58077   0.15599   0.97073   1.000
    C28     C    0.89575   0.02262   0.23357   1.000
    C29     C    0.90128   0.03055   0.12235   1.000
    C30     C    0.66318   0.74951   0.11997   1.000
    C31     C    0.66798   0.75207   0.23212   1.000
    C32     C    0.51963   0.89124   0.95149   1.000
    C33     C    0.51223   0.88108   0.83955   1.000
    C34     C    0.02203   0.86790   0.83221   1.000
    C35     C    0.02795   0.87463   0.94359   1.000
    C36     C    0.63340   0.72783   0.66623   1.000
    C37     C    0.62971   0.72689   0.55441   1.000
    C38     C    0.86693   0.98937   0.54546   1.000
    C39     C    0.87929   0.00236   0.65630   1.000
    C40     C    0.76382   0.56717   0.27810   1.000
    C41     C    0.77266   0.38249   0.26459   1.000
    C42     C    0.72967   0.52327   0.46729   1.000
    C43     C    0.77530   0.21022   0.30928   1.000
    C44     C    0.73658   0.16531   0.49831   1.000
    C45     C    0.72365   0.34885   0.51144   1.000
    C46     C    0.09676   0.87573   0.31485   1.000
    C47     C    0.24729   0.84807   0.51695   1.000
    C48     C    0.06165   0.86148   0.50492   1.000
    C49     C    0.26837   0.87058   0.26855   1.000
    C50     C    0.45524   0.86432   0.28055   1.000
    C51     C    0.41911   0.84384   0.47075   1.000
    C52     C    0.15465   0.03633   0.70699   1.000
    C53     C    0.15171   0.03206   0.64495   1.000
    C54     C    0.21788   0.10964   0.61298   1.000
    C55     C    0.28426   0.18889   0.64372   1.000
    C56     C    0.28246   0.18767   0.70560   1.000
    C57     C    0.12540   0.11304   0.51861   1.000
    C58     C    0.13260   0.12049   0.45285   1.000
    C59     C    0.22795   0.12066   0.42343   1.000
    C60     C    0.31884   0.11403   0.45554   1.000
    C61     C    0.31621   0.10642   0.52121   1.000
    C62     C    0.41152   0.11387   0.42560   1.000
    C63     C    0.41568   0.11970   0.36321   1.000
    C64     C    0.32707   0.12501   0.33050   1.000
    C65     C    0.23200   0.12563   0.35992   1.000
    C66     C    0.14041   0.12957   0.32760   1.000
    C67     C    0.04808   0.13045   0.35759   1.000
    C68     C    0.04439   0.12630   0.42012   1.000
    C69     C    0.14148   0.13125   0.26170   1.000
    C70     C    0.33332   0.12862   0.26477   1.000
    C71     C    0.24289   0.13450   0.16983   1.000
    C72     C    0.31366   0.21292   0.14095   1.000
    C73     C    0.31605   0.21365   0.07896   1.000
    C74     C    0.18368   0.06655   0.07386   1.000
    C75     C    0.17689   0.05992   0.13572   1.000
    C76     C    0.25469   0.33226   0.88117   1.000
    C77     C    0.25406   0.44469   0.87389   1.000
    C78     C    0.24246   0.48509   0.81616   1.000
    C79     C    0.23746   0.58697   0.80894   1.000
    C80     C    0.24400   0.65408   0.85892   1.000
    C81     C    0.25770   0.61397   0.91730   1.000
    C82     C    0.26196   0.50871   0.92324   1.000
    C83     C    0.23588   0.75838   0.85326   1.000
    C84     C    0.24170   0.82179   0.90280   1.000
    C85     C    0.25759   0.78249   0.96033   1.000
    C86     C    0.26505   0.68124   0.96725   1.000
    C87     C    0.23202   0.93193   0.89631   1.000
    C88     C    0.04062   0.11967   0.90223   1.000
    C89     C    0.92994   0.12924   0.90883   1.000
    C90     C    0.86888   0.12982   0.85864   1.000
    C91     C    0.76378   0.13719   0.86357   1.000
    C92     C    0.72076   0.14491   0.92194   1.000
    C93     C    0.78553   0.14534   0.97276   1.000
    C94     C    0.88758   0.13779   0.96643   1.000
    C95     C    0.69880   0.13525   0.81279   1.000
    C96     C    0.59588   0.13944   0.81908   1.000
    C97     C    0.55335   0.14747   0.87666   1.000
    C98     C    0.61517   0.15053   0.92691   1.000
    C99     C    0.44045   0.14942   0.88310   1.000
    C100    C    0.84536   0.96353   0.20690   1.000
    C101    C    0.84824   0.96776   0.14486   1.000
    C102    C    0.78205   0.89015   0.11290   1.000
    C103    C    0.71572   0.81091   0.14378   1.000
    C104    C    0.71758   0.81216   0.20566   1.000
    C105    C    0.87451   0.88681   0.01856   1.000
    C106    C    0.86730   0.87935   0.95279   1.000
    C107    C    0.77194   0.87920   0.92341   1.000
    C108    C    0.68106   0.88582   0.95556   1.000
    C109    C    0.68371   0.89343   0.02124   1.000
    C110    C    0.58838   0.88602   0.92567   1.000
    C111    C    0.58420   0.88022   0.86328   1.000
    C112    C    0.67280   0.87491   0.83050   1.000
    C113    C    0.76787   0.87426   0.85990   1.000
    C114    C    0.85945   0.87033   0.82754   1.000
    C115    C    0.95179   0.86943   0.85748   1.000
    C116    C    0.95550   0.87356   0.92001   1.000
    C117    C    0.85837   0.86868   0.76160   1.000
    C118    C    0.66656   0.87133   0.76479   1.000
    C119    C    0.75695   0.86543   0.66982   1.000
    C120    C    0.68618   0.78699   0.64099   1.000
    C121    C    0.68379   0.78624   0.57900   1.000
    C122    C    0.81612   0.93337   0.57380   1.000
    C123    C    0.82292   0.94002   0.63565   1.000
    C124    C    0.74533   0.66768   0.38110   1.000
    C125    C    0.74597   0.55527   0.37389   1.000
    C126    C    0.75761   0.51495   0.31614   1.000
    C127    C    0.76259   0.41308   0.30890   1.000
    C128    C    0.75600   0.34589   0.35887   1.000
    C129    C    0.74227   0.38592   0.41720   1.000
    C130    C    0.73802   0.49117   0.42322   1.000
    C131    C    0.76412   0.24159   0.35319   1.000
    C132    C    0.75827   0.17811   0.40275   1.000
    C133    C    0.74232   0.21733   0.46025   1.000
    C134    C    0.73487   0.31856   0.46720   1.000
    C135    C    0.76797   0.06799   0.39622   1.000
    C136    C    0.95936   0.88026   0.40224   1.000
    C137    C    0.07003   0.87067   0.40883   1.000
    C138    C    0.13116   0.87011   0.35865   1.000
    C139    C    0.23625   0.86273   0.36358   1.000
    C140    C    0.27919   0.85496   0.42195   1.000
    C141    C    0.21435   0.85449   0.47270   1.000
    C142    C    0.11231   0.86206   0.46643   1.000
    C143    C    0.30130   0.86470   0.31280   1.000
    C144    C    0.40421   0.86050   0.31910   1.000
    C145    C    0.44667   0.85245   0.37660   1.000
    C146    C    0.38477   0.84933   0.42690   1.000
    C147    C    0.55956   0.85052   0.38319   1.000
    C148    C    0.21885   0.11267   0.73679   1.000
    C149    C    0.21933   0.10970   0.54891   1.000
    C150    C    0.23867   0.13095   0.23395   1.000
    C151    C    0.25224   0.14202   0.04581   1.000
    C152    C    0.78119   0.88719   0.23670   1.000
    C153    C    0.78056   0.89007   0.04800   1.000
    C154    C    0.76119   0.86899   0.73393   1.000
    C155    C    0.74758   0.85787   0.54580   1.000
    C156    C    0.04484   0.11096   0.54663   1.000
    C157    C    0.39114   0.09784   0.55166   1.000
    C158    C    0.06426   0.13333   0.23140   1.000
    C159    C    0.41327   0.12872   0.23688   1.000
    C160    C    0.40904   0.16917   0.93470   1.000
    C161    C    0.38497   0.12930   0.83635   1.000
    C162    C    0.07473   0.11574   0.84920   1.000
    C163    C    0.09174   0.11577   0.95003   1.000
    C164    C    0.24845   0.98770   0.94300   1.000
    C165    C    0.20770   0.96141   0.84503   1.000
    C166    C    0.25403   0.29757   0.93432   1.000
    C167    C    0.25414   0.27982   0.83340   1.000
    C168    C    0.95508   0.88897   0.04650   1.000
    C169    C    0.60881   0.90209   0.05173   1.000
    C170    C    0.93558   0.86659   0.73131   1.000
    C171    C    0.58663   0.87125   0.73690   1.000
    C172    C    0.59094   0.83077   0.43478   1.000
    C173    C    0.61508   0.87065   0.33636   1.000
    C174    C    0.92529   0.88421   0.34923   1.000
    C175    C    0.90821   0.88415   0.45005   1.000
    C176    C    0.75157   0.01220   0.44297   1.000
    C177    C    0.79227   0.03854   0.34490   1.000
    C178    C    0.74598   0.70233   0.43433   1.000
    C179    C    0.74588   0.72015   0.33349   1.000
    O180    O    0.91288   0.13807   0.98321   1.000
    O181    O    0.27063   0.66607   0.98937   1.000
    O182    O    0.76902   0.14853   0.99486   1.000
    O183    O    0.91480   0.88789   0.03253   1.000
    O184    O    0.82754   0.88844   0.03328   1.000
    O185    O    0.87091   0.88308   0.98567   1.000
    O186    O    0.73214   0.89175   0.03462   1.000
    O187    O    0.64626   0.89776   0.03648   1.000
    O188    O    0.68238   0.88962   0.98840   1.000
    O189    O    0.15827   0.03856   0.05971   1.000
    O190    O    0.21796   0.10429   0.05983   1.000
    O191    O    0.28414   0.17784   0.06238   1.000
    O192    O    0.25270   0.14378   0.99964   1.000
    O193    O    0.78131   0.89011   0.08045   1.000
    O194    O    0.34309   0.24332   0.06664   1.000
    O195    O    0.18028   0.06323   0.10479   1.000
    O196    O    0.31485   0.21329   0.10995   1.000
    O197    O    0.74889   0.85053   0.12834   1.000
    O198    O    0.81515   0.92896   0.12888   1.000
    O199    O    0.68945   0.78021   0.13187   1.000
    O200    O    0.87476   0.99916   0.13360   1.000
    O201    O    0.14869   0.02876   0.14606   1.000
    O202    O    0.20989   0.09721   0.15277   1.000
    O203    O    0.34006   0.24250   0.15355   1.000
    O204    O    0.27827   0.17371   0.15539   1.000
    O205    O    0.71665   0.81153   0.17472   1.000
    O206    O    0.84680   0.96565   0.17588   1.000
    O207    O    0.24078   0.13272   0.20189   1.000
    O208    O    0.69278   0.78211   0.21889   1.000
    O209    O    0.74939   0.84967   0.22118   1.000
    O210    O    0.87055   0.99307   0.22023   1.000
    O211    O    0.81328   0.92536   0.22180   1.000
    O212    O    0.10287   0.13229   0.24655   1.000
    O213    O    0.19007   0.13110   0.24782   1.000
    O214    O    0.28599   0.12979   0.24936   1.000
    O215    O    0.77717   0.88400   0.28253   1.000
    O216    O    0.37329   0.12867   0.25082   1.000
    O217    O    0.14095   0.13041   0.29465   1.000
    O218    O    0.76763   0.39778   0.28674   1.000
    O219    O    0.33019   0.12682   0.29763   1.000
    O220    O    0.28484   0.86764   0.29067   1.000
    O221    O    0.76072   0.54106   0.29712   1.000
    O222    O    0.42973   0.86241   0.29982   1.000
    O223    O    0.76010   0.46402   0.31252   1.000
    O224    O    0.75930   0.37948   0.33388   1.000
    O225    O    0.76971   0.22591   0.33123   1.000
    O226    O    0.35276   0.86260   0.31595   1.000
    O227    O    0.26878   0.86372   0.33819   1.000
    O228    O    0.11396   0.87292   0.33675   1.000
    O229    O    0.75179   0.53511   0.34501   1.000
    O230    O    0.42544   0.85648   0.34785   1.000
    O231    O    0.09424   0.13001   0.34259   1.000
    O232    O    0.18620   0.12760   0.34376   1.000
    O233    O    0.75951   0.80048   0.33092   1.000
    O234    O    0.69411   0.87573   0.33236   1.000
    O235    O    0.78271   0.95967   0.33663   1.000
    O236    O    0.84922   0.88250   0.33879   1.000
    O237    O    0.27953   0.12532   0.34521   1.000
    O238    O    0.37137   0.12236   0.34685   1.000
    O239    O    0.01296   0.13121   0.34497   1.000
    O240    O    0.74561   0.69392   0.35729   1.000
    O241    O    0.58732   0.86059   0.35977   1.000
    O242    O    0.45166   0.11929   0.35130   1.000
    O243    O    0.78012   0.05327   0.37056   1.000
    O244    O    0.94233   0.88223   0.37573   1.000
    O245    O    0.76006   0.29374   0.35603   1.000
    O246    O    0.76119   0.20985   0.37797   1.000
    O247    O    0.04623   0.12837   0.38885   1.000
    O248    O    0.18370   0.86642   0.36111   1.000
    O249    O    0.10059   0.87039   0.38374   1.000
    O250    O    0.74914   0.36590   0.38803   1.000
    O251    O    0.22998   0.12315   0.39167   1.000
    O252    O    0.41360   0.11678   0.39440   1.000
    O253    O    0.25772   0.85884   0.39276   1.000
    O254    O    0.74565   0.61148   0.37749   1.000
    O255    O    0.74200   0.52322   0.39855   1.000
    O256    O    0.50312   0.85149   0.37989   1.000
    O257    O    0.41572   0.85089   0.40175   1.000
    O258    O    0.74566   0.68501   0.40771   1.000
    O259    O    0.57525   0.84065   0.40898   1.000
    O260    O    0.76312   0.12305   0.39948   1.000
    O261    O    0.75977   0.04009   0.41959   1.000
    O262    O    0.01470   0.87546   0.40553   1.000
    O263    O    0.93378   0.88220   0.42614   1.000
    O264    O    0.75029   0.19772   0.43150   1.000
    O265    O    0.09117   0.86636   0.43763   1.000
    O266    O    0.74015   0.43854   0.42021   1.000
    O267    O    0.73857   0.35224   0.44220   1.000
    O268    O    0.00817   0.12575   0.43193   1.000
    O269    O    0.08849   0.12340   0.43648   1.000
    O270    O    0.33198   0.85215   0.42442   1.000
    O271    O    0.24677   0.85473   0.44732   1.000
    O272    O    0.73385   0.50722   0.44525   1.000
    O273    O    0.18028   0.12058   0.43814   1.000
    O274    O    0.27340   0.11734   0.43948   1.000
    O275    O    0.44590   0.11125   0.43849   1.000
    O276    O    0.36518   0.11395   0.44057   1.000
    O277    O    0.40194   0.84659   0.44882   1.000
    O278    O    0.74640   0.77834   0.44390   1.000
    O279    O    0.66888   0.84256   0.44413   1.000
    O280    O    0.74919   0.93327   0.44822   1.000
    O281    O    0.82751   0.86925   0.45176   1.000
    O282    O    0.12900   0.11677   0.48573   1.000
    O283    O    0.74720   0.85611   0.49964   1.000
    O284    O    0.31752   0.11022   0.48837   1.000
    O285    O    0.73859   0.26795   0.46372   1.000
    O286    O    0.73945   0.19132   0.47928   1.000
    O287    O    0.16333   0.85828   0.46956   1.000
    O288    O    0.08698   0.86177   0.48567   1.000
    O289    O    0.72926   0.33371   0.48932   1.000
    O290    O    0.23082   0.85128   0.49482   1.000
    O291    O    0.08512   0.11200   0.53262   1.000
    O292    O    0.17237   0.11137   0.53376   1.000
    O293    O    0.26777   0.10806   0.53506   1.000
    O294    O    0.35367   0.10213   0.53643   1.000
    O295    O    0.84152   0.96137   0.55963   1.000
    O296    O    0.78185   0.89562   0.55980   1.000
    O297    O    0.71569   0.82206   0.56240   1.000
    O298    O    0.21861   0.10967   0.58094   1.000
    O299    O    0.65675   0.75657   0.56670   1.000
    O300    O    0.81952   0.93670   0.60472   1.000
    O301    O    0.68499   0.78662   0.60999   1.000
    O302    O    0.25107   0.14926   0.62835   1.000
    O303    O    0.18479   0.07085   0.62896   1.000
    O304    O    0.31053   0.21957   0.63176   1.000
    O305    O    0.12517   0.00066   0.63373   1.000
    O306    O    0.85110   0.97119   0.64597   1.000
    O307    O    0.78993   0.90273   0.65273   1.000
    O308    O    0.65979   0.75741   0.65361   1.000
    O309    O    0.72157   0.82621   0.65540   1.000
    O310    O    0.28336   0.18828   0.67466   1.000
    O311    O    0.15318   0.03419   0.67597   1.000
    O312    O    0.75907   0.86721   0.70187   1.000
    O313    O    0.30728   0.21772   0.71780   1.000
    O314    O    0.25066   0.15017   0.72119   1.000
    O315    O    0.12946   0.00680   0.72034   1.000
    O316    O    0.18675   0.07450   0.72189   1.000
    O317    O    0.89698   0.86763   0.74645   1.000
    O318    O    0.80978   0.86883   0.74776   1.000
    O319    O    0.71387   0.87016   0.74936   1.000
    O320    O    0.22287   0.11591   0.78254   1.000
    O321    O    0.62659   0.87129   0.75084   1.000
    O322    O    0.85891   0.86950   0.79457   1.000
    O323    O    0.23244   0.60230   0.78677   1.000
    O324    O    0.66968   0.87312   0.79764   1.000
    O325    O    0.71530   0.13232   0.79066   1.000
    O326    O    0.23937   0.45901   0.79716   1.000
    O327    O    0.57039   0.13755   0.79980   1.000
    O328    O    0.23996   0.53603   0.81255   1.000
    O329    O    0.24073   0.62052   0.83393   1.000
    O330    O    0.23031   0.77410   0.83131   1.000
    O331    O    0.64734   0.13734   0.81593   1.000
    O332    O    0.73129   0.13622   0.83818   1.000
    O333    O    0.88611   0.12703   0.83674   1.000
    O334    O    0.24826   0.46489   0.84502   1.000
    O335    O    0.57461   0.14345   0.84787   1.000
    O336    O    0.90562   0.86988   0.84251   1.000
    O337    O    0.81366   0.87229   0.84372   1.000
    O338    O    0.24051   0.19949   0.83085   1.000
    O339    O    0.30593   0.12423   0.83232   1.000
    O340    O    0.21729   0.04028   0.83666   1.000
    O341    O    0.15081   0.11745   0.83875   1.000
    O342    O    0.72034   0.87459   0.84520   1.000
    O343    O    0.62850   0.87757   0.84689   1.000
    O344    O    0.98691   0.86866   0.84484   1.000
    O345    O    0.25441   0.30604   0.85728   1.000
    O346    O    0.41271   0.13936   0.85972   1.000
    O347    O    0.54822   0.88065   0.85141   1.000
    O348    O    0.21986   0.94667   0.87067   1.000
    O349    O    0.05768   0.11771   0.87571   1.000
    O350    O    0.23994   0.70623   0.85609   1.000
    O351    O    0.23879   0.79009   0.87803   1.000
    O352    O    0.95365   0.87149   0.88874   1.000
    O353    O    0.81633   0.13350   0.86110   1.000
    O354    O    0.89941   0.12953   0.88373   1.000
    O355    O    0.25085   0.63402   0.88811   1.000
    O356    O    0.76991   0.87673   0.89165   1.000
    O357    O    0.58629   0.88312   0.89447   1.000
    O358    O    0.74227   0.14105   0.89275   1.000
    O359    O    0.25437   0.38847   0.87753   1.000
    O360    O    0.25801   0.47670   0.89856   1.000
    O361    O    0.49690   0.14844   0.87988   1.000
    O362    O    0.58426   0.14900   0.90178   1.000
    O363    O    0.25436   0.31492   0.90774   1.000
    O364    O    0.42475   0.15929   0.90890   1.000
    O365    O    0.23686   0.87686   0.89955   1.000
    O366    O    0.24023   0.95982   0.91965   1.000
    O367    O    0.98528   0.12445   0.90553   1.000
    O368    O    0.06618   0.11772   0.92613   1.000
    O369    O    0.24965   0.80214   0.93156   1.000
    O370    O    0.90876   0.13351   0.93763   1.000
    O371    O    0.25983   0.56134   0.92027   1.000
    O372    O    0.26137   0.64761   0.94227   1.000
    O373    O    0.99173   0.87409   0.93180   1.000
    O374    O    0.91140   0.87645   0.93640   1.000
    O375    O    0.66797   0.14772   0.92442   1.000
    O376    O    0.75314   0.14512   0.94735   1.000
    O377    O    0.26613   0.49263   0.94526   1.000
    O378    O    0.81962   0.87927   0.93810   1.000
    O379    O    0.72650   0.88251   0.93948   1.000
    O380    O    0.55400   0.88863   0.93858   1.000
    O381    O    0.63472   0.88592   0.94061   1.000
    O382    O    0.59797   0.15326   0.94882   1.000
    O383    O    0.25359   0.22156   0.94390   1.000
    O384    O    0.33110   0.15735   0.94409   1.000
    O385    O    0.25081   0.06662   0.94824   1.000
    O386    O    0.17245   0.13065   0.95175   1.000
    O387    O    0.26132   0.73187   0.96379   1.000
    O388    O    0.26044   0.80847   0.97936   1.000
    O389    O    0.83655   0.14156   0.96959   1.000
    O390    O    0.24002   0.13235   0.89089   1.000
    O391    O    0.75998   0.86758   0.39092   1.000
loop_
    _geom_bond_atom_site_label_1
    _geom_bond_atom_site_label_2
    _geom_bond_distance
    _geom_bond_site_symmetry_2
    _ccdc_geom_bond_type
    C24    O180      0.50205  1_554   S
    C94    O180      0.50205      .   S
    C21    O181      0.54591  1_554   S
    C86    O181      0.54591      .   S
    C23    O182      0.54605  1_554   S
    C93    O182      0.54605      .   S
    C105   O183      0.61349      .   S
    C168   O183      0.61349      .   S
    C105   O184      0.70531      .   S
    C153   O184      0.70531      .   S
    C105   O185      0.73938  1_554   S
    C106   O185      0.73938      .   S
    C109   O186      0.70942      .   S
    C153   O186      0.70942      .   S
    C109   O187      0.61257      .   S
    C169   O187      0.61257      .   S
    C109   O188      0.73754  1_554   S
    C108   O188      0.73754      .   S
    C14    O189      0.54458      .   S
    C74    O189      0.54458      .   S
    C151   O190      0.67449      .   S
    C74    O190      0.67449      .   S
    C151   O191      0.67359      .   S
    C73    O191      0.67359      .   S
    C151   O192      1.03466  1_554   S
    C1     O192      1.03466      .   S
    C153   O193      0.72718      .   S
    C102   O193      0.72718      .   S
    C13    O194      0.54498      .   S
    C73    O194      0.54498      .   S
    C74    O195      0.69524      .   S
    C75    O195      0.69524      .   S
    C73    O196      0.69467      .   S
    C72    O196      0.69467      .   S
    C102   O197      0.69779      .   S
    C103   O197      0.69779      .   S
    C102   O198      0.69712      .   S
    C101   O198      0.69712      .   S
    C30    O199      0.54377      .   S
    C103   O199      0.54377      .   S
    C29    O200      0.54386  1_545   S
    C101   O200      0.54386      .   S
    C75    O201      0.54379      .   S
    C15    O201      0.54379  1_565   S
    C75    O202      0.69750      .   S
    C71    O202      0.69750      .   S
    C72    O203      0.54358      .   S
    C12    O203      0.54358      .   S
    C72    O204      0.69792      .   S
    C71    O204      0.69792      .   S
    C103   O205      0.69340      .   S
    C104   O205      0.69340      .   S
    C101   O206      0.69571      .   S
    C100   O206      0.69571      .   S
    C71    O207      0.71908      .   S
    C150   O207      0.71908      .   S
    C104   O208      0.54477      .   S
    C31    O208      0.54477      .   S
    C104   O209      0.67366      .   S
    C152   O209      0.67366      .   S
    C100   O210      0.54468      .   S
    C28    O210      0.54468  1_545   S
    C100   O211      0.67329      .   S
    C152   O211      0.67329      .   S
    C158   O212      0.61402      .   S
    C69    O212      0.61402      .   S
    C150   O213      0.71167      .   S
    C69    O213      0.71167      .   S
    C150   O214      0.71557      .   S
    C70    O214      0.71557      .   S
    C152   O215      1.02865      .   S
    C2     O215      1.02865      .   S
    C159   O216      0.61192      .   S
    C70    O216      0.61192      .   S
    C69    O217      0.73840      .   S
    C66    O217      0.73840      .   S
    C41    O218      0.54571      .   S
    C127   O218      0.54571      .   S
    C70    O219      0.73764      .   S
    C64    O219      0.73764      .   S
    C49    O220      0.54590      .   S
    C143   O220      0.54590      .   S
    C40    O221      0.54491      .   S
    C126   O221      0.54491      .   S
    C50    O222      0.54427      .   S
    C144   O222      0.54427      .   S
    C127   O223      0.68798      .   S
    C126   O223      0.68798      .   S
    C127   O224      0.71077      .   S
    C128   O224      0.71077      .   S
    C43    O225      0.54528      .   S
    C131   O225      0.54528      .   S
    C143   O226      0.68773      .   S
    C144   O226      0.68773      .   S
    C143   O227      0.71040      .   S
    C139   O227      0.71040      .   S
    C46    O228      0.54514      .   S
    C138   O228      0.54514      .   S
    C126   O229      0.71051      .   S
    C125   O229      0.71051      .   S
    C144   O230      0.70889      .   S
    C145   O230      0.70889      .   S
    C66    O231      0.69559      .   S
    C67    O231      0.69559      .   S
    C66    O232      0.70874      .   S
    C65    O232      0.70874      .   S
    C2     O233      1.04254      .   S
    C179   O233      1.04254      .   S
    C2     O234      1.03205      .   S
    C173   O234      1.03205      .   S
    C2     O235      1.04247      .   S
    C177   O235      1.04247  1_545   S
    C2     O236      1.02411      .   S
    C174   O236      1.02411      .   S
    C64    O237      0.70807      .   S
    C65    O237      0.70807      .   S
    C64    O238      0.69634      .   S
    C63    O238      0.69634      .   S
    C10    O239      0.54407  1_655   S
    C67    O239      0.54407      .   S
    C179   O240      0.63630      .   S
    C124   O240      0.63630      .   S
    C173   O241      0.63671      .   S
    C147   O241      0.63671      .   S
    C9     O242      0.54470      .   S
    C63    O242      0.54470      .   S
    C177   O243      0.63858      .   S
    C135   O243      0.63858      .   S
    C174   O244      0.63745      .   S
    C136   O244      0.63745      .   S
    C131   O245      0.70774      .   S
    C128   O245      0.70774      .   S
    C131   O246      0.69262      .   S
    C132   O246      0.69262      .   S
    C67    O247      0.70129      .   S
    C68    O247      0.70129      .   S
    C138   O248      0.70626      .   S
    C139   O248      0.70626      .   S
    C138   O249      0.69175      .   S
    C137   O249      0.69175      .   S
    C128   O250      0.71839      .   S
    C129   O250      0.71839      .   S
    C65    O251      0.71251      .   S
    C59    O251      0.71251      .   S
    C63    O252      0.70024      .   S
    C62    O252      0.70024      .   S
    C139   O253      0.71876      .   S
    C140   O253      0.71876      .   S
    C125   O254      0.75049      .   S
    C124   O254      0.75049      .   S
    C125   O255      0.69209      .   S
    C130   O255      0.69209      .   S
    C145   O256      0.74977      .   S
    C147   O256      0.74977      .   S
    C145   O257      0.69302      .   S
    C146   O257      0.69302      .   S
    C124   O258      0.63880      .   S
    C178   O258      0.63880      .   S
    C147   O259      0.63691      .   S
    C172   O259      0.63691      .   S
    C135   O260      0.75002      .   S
    C132   O260      0.75002      .   S
    C135   O261      0.63670      .   S
    C176   O261      0.63670      .   S
    C136   O262      0.74859  1_655   S
    C137   O262      0.74859      .   S
    C136   O263      0.63612      .   S
    C175   O263      0.63612      .   S
    C132   O264      0.71093      .   S
    C133   O264      0.71093      .   S
    C137   O265      0.71004      .   S
    C142   O265      0.71004      .   S
    C129   O266      0.70750      .   S
    C130   O266      0.70750      .   S
    C129   O267      0.71132      .   S
    C134   O267      0.71132      .   S
    C68    O268      0.54402      .   S
    C11    O268      0.54402  1_655   S
    C68    O269      0.69498      .   S
    C58    O269      0.69498      .   S
    C140   O270      0.70629      .   S
    C146   O270      0.70629      .   S
    C140   O271      0.71048      .   S
    C141   O271      0.71048      .   S
    C130   O272      0.54514      .   S
    C42    O272      0.54514      .   S
    C59    O273      0.70873      .   S
    C58    O273      0.70873      .   S
    C59    O274      0.70771      .   S
    C60    O274      0.70771      .   S
    C62    O275      0.54451      .   S
    C8     O275      0.54451      .   S
    C62    O276      0.69640      .   S
    C60    O276      0.69640      .   S
    C146   O277      0.54537      .   S
    C51    O277      0.54537      .   S
    C178   O278      1.02924      .   S
    C3     O278      1.02924      .   S
    C172   O279      1.02569      .   S
    C3     O279      1.02569      .   S
    C176   O280      1.04665  1_545   S
    C3     O280      1.04665      .   S
    C175   O281      1.03860      .   S
    C3     O281      1.03860      .   S
    C58    O282      0.73920      .   S
    C57    O282      0.73920      .   S
    C3     O283      1.03457      .   S
    C155   O283      1.03457      .   S
    C60    O284      0.73739      .   S
    C61    O284      0.73739      .   S
    C133   O285      0.68784      .   S
    C134   O285      0.68784      .   S
    C133   O286      0.54446      .   S
    C44    O286      0.54446      .   S
    C142   O287      0.68798      .   S
    C141   O287      0.68798      .   S
    C142   O288      0.54458      .   S
    C48    O288      0.54458      .   S
    C134   O289      0.54576      .   S
    C45    O289      0.54576      .   S
    C141   O290      0.54651      .   S
    C47    O290      0.54651      .   S
    C57    O291      0.61379      .   S
    C156   O291      0.61379      .   S
    C57    O292      0.71009      .   S
    C149   O292      0.71009      .   S
    C61    O293      0.71373      .   S
    C149   O293      0.71373      .   S
    C61    O294      0.61253      .   S
    C157   O294      0.61253      .   S
    C38    O295      0.54464      .   S
    C122   O295      0.54464      .   S
    C155   O296      0.67449      .   S
    C122   O296      0.67449      .   S
    C155   O297      0.67359      .   S
    C121   O297      0.67359      .   S
    C149   O298      0.71787      .   S
    C54    O298      0.71787      .   S
    C37    O299      0.54496      .   S
    C121   O299      0.54496      .   S
    C122   O300      0.69519      .   S
    C123   O300      0.69519      .   S
    C121   O301      0.69468      .   S
    C120   O301      0.69468      .   S
    C54    O302      0.69742      .   S
    C55    O302      0.69742      .   S
    C54    O303      0.69676      .   S
    C53    O303      0.69676      .   S
    C6     O304      0.54403      .   S
    C55    O304      0.54403      .   S
    C5     O305      0.54386  1_565   S
    C53    O305      0.54386      .   S
    C123   O306      0.54387      .   S
    C39    O306      0.54387  1_545   S
    C123   O307      0.69753      .   S
    C119   O307      0.69753      .   S
    C120   O308      0.54355      .   S
    C36    O308      0.54355      .   S
    C120   O309      0.69797      .   S
    C119   O309      0.69797      .   S
    C55    O310      0.69338      .   S
    C56    O310      0.69338      .   S
    C53    O311      0.69575      .   S
    C52    O311      0.69575      .   S
    C119   O312      0.71900      .   S
    C154   O312      0.71900      .   S
    C56    O313      0.53293      .   S
    C7     O313      0.53293      .   S
    C56    O314      0.67410      .   S
    C148   O314      0.67410      .   S
    C52    O315      0.54457      .   S
    C4     O315      0.54457  1_565   S
    C52    O316      0.67369      .   S
    C148   O316      0.67369      .   S
    C170   O317      0.61375      .   S
    C117   O317      0.61375      .   S
    C154   O318      0.71142      .   S
    C117   O318      0.71142      .   S
    C154   O319      0.71555      .   S
    C118   O319      0.71555      .   S
    C148   O320      1.02704      .   S
    C0     O320      1.02704      .   S
    C171   O321      0.61197      .   S
    C118   O321      0.61197      .   S
    C117   O322      0.73886      .   S
    C114   O322      0.73886      .   S
    C17    O323      0.54611      .   S
    C79    O323      0.54611      .   S
    C118   O324      0.73745      .   S
    C112   O324      0.73745      .   S
    C25    O325      0.54593      .   S
    C95    O325      0.54593      .   S
    C16    O326      0.54440      .   S
    C78    O326      0.54440      .   S
    C26    O327      0.54425      .   S
    C96    O327      0.54425      .   S
    C79    O328      0.68799      .   S
    C78    O328      0.68799      .   S
    C79    O329      0.71074      .   S
    C80    O329      0.71074      .   S
    C19    O330      0.54526      .   S
    C83    O330      0.54526      .   S
    C95    O331      0.68774      .   S
    C96    O331      0.68774      .   S
    C95    O332      0.71038      .   S
    C91    O332      0.71038      .   S
    C22    O333      0.54507      .   S
    C90    O333      0.54507      .   S
    C78    O334      0.71041      .   S
    C77    O334      0.71041      .   S
    C96    O335      0.70973      .   S
    C97    O335      0.70973      .   S
    C114   O336      0.69557      .   S
    C115   O336      0.69557      .   S
    C114   O337      0.70871      .   S
    C113   O337      0.70871      .   S
    C0     O338      1.04268      .   S
    C167   O338      1.04268      .   S
    C0     O339      1.03227      .   S
    C161   O339      1.03227      .   S
    C0     O340      1.04274      .   S
    C165   O340      1.04274  1_565   S
    C0     O341      1.02409      .   S
    C162   O341      1.02409      .   S
    C112   O342      0.70821      .   S
    C113   O342      0.70821      .   S
    C112   O343      0.69649      .   S
    C111   O343      0.69649      .   S
    C34    O344      0.54405  1_455   S
    C115   O344      0.54405      .   S
    C167   O345      0.63782      .   S
    C76    O345      0.63782      .   S
    C161   O346      0.63610      .   S
    C99    O346      0.63610      .   S
    C33    O347      0.54449      .   S
    C111   O347      0.54449      .   S
    C165   O348      0.63831      .   S
    C87    O348      0.63831      .   S
    C162   O349      0.63761      .   S
    C88    O349      0.63761      .   S
    C83    O350      0.70774      .   S
    C80    O350      0.70774      .   S
    C83    O351      0.69238      .   S
    C84    O351      0.69238      .   S
    C115   O352      0.70132      .   S
    C116   O352      0.70132      .   S
    C90    O353      0.70625      .   S
    C91    O353      0.70625      .   S
    C90    O354      0.69183      .   S
    C89    O354      0.69183      .   S
    C80    O355      0.71901      .   S
    C81    O355      0.71901      .   S
    C113   O356      0.71254      .   S
    C107   O356      0.71254      .   S
    C111   O357      0.70027      .   S
    C110   O357      0.70027      .   S
    C91    O358      0.71878      .   S
    C92    O358      0.71878      .   S
    C77    O359      0.75062      .   S
    C76    O359      0.75062      .   S
    C77    O360      0.69218      .   S
    C82    O360      0.69218      .   S
    C97    O361      0.74959      .   S
    C99    O361      0.74959      .   S
    C97    O362      0.69254      .   S
    C98    O362      0.69254      .   S
    C76    O363      0.63794      .   S
    C166   O363      0.63794      .   S
    C99    O364      0.63701      .   S
    C160   O364      0.63701      .   S
    C87    O365      0.75000      .   S
    C84    O365      0.75000      .   S
    C87    O366      0.63629      .   S
    C164   O366      0.63629      .   S
    C88    O367      0.74859  1_455   S
    C89    O367      0.74859      .   S
    C88    O368      0.63608      .   S
    C163   O368      0.63608      .   S
    C84    O369      0.71134      .   S
    C85    O369      0.71134      .   S
    C89    O370      0.71005      .   S
    C94    O370      0.71005      .   S
    C81    O371      0.70744      .   S
    C82    O371      0.70744      .   S
    C81    O372      0.71079      .   S
    C86    O372      0.71079      .   S
    C116   O373      0.54402      .   S
    C35    O373      0.54402  1_455   S
    C116   O374      0.69501      .   S
    C106   O374      0.69501      .   S
    C92    O375      0.70630      .   S
    C98    O375      0.70630      .   S
    C92    O376      0.71108      .   S
    C93    O376      0.71108      .   S
    C82    O377      0.54503      .   S
    C18    O377      0.54503      .   S
    C107   O378      0.70879      .   S
    C106   O378      0.70879      .   S
    C107   O379      0.70769      .   S
    C108   O379      0.70769      .   S
    C110   O380      0.54447      .   S
    C32    O380      0.54447      .   S
    C110   O381      0.69637      .   S
    C108   O381      0.69637      .   S
    C98    O382      0.54509      .   S
    C27    O382      0.54509      .   S
    C166   O383      1.02921      .   S
    C1     O383      1.02921      .   S
    C160   O384      1.02580      .   S
    C1     O384      1.02580      .   S
    C164   O385      1.04666  1_565   S
    C1     O385      1.04666      .   S
    C163   O386      1.03880      .   S
    C1     O386      1.03880      .   S
    C85    O387      0.68784      .   S
    C86    O387      0.68784      .   S
    C85    O388      0.54438      .   S
    C20    O388      0.54438      .   S
    C94    O389      0.68806      .   S
    C93    O389      0.68806      .   S
    C0     O390      1.41936      .   S
    C1     O390      1.41936      .   S
    C2     O391      1.41858      .   S
    C3     O391      1.41858      .   S
