# CIF file generated by openbabel 2.4.90, see http://openbabel.sf.net
data_I
_chemical_name_common ''
_cell_length_a 13.167
_cell_length_b 13.258
_cell_length_c 22.407
_cell_angle_alpha 89.986
_cell_angle_beta 89.981
_cell_angle_gamma 102.493
_space_group_name_H-M_alt 'P 1'
_space_group_name_Hall 'P 1'
loop_
    _symmetry_equiv_pos_as_xyz
    x,y,z
loop_
    _atom_site_label
    _atom_site_type_symbol
    _atom_site_fract_x
    _atom_site_fract_y
    _atom_site_fract_z
    _atom_site_occupancy
    Zr0     Zr   0.22689   0.11916   0.82830   1.000
    Zr1     Zr   0.25316   0.14554   0.95348   1.000
    Zr2     Zr   0.77315   0.88080   0.32836   1.000
    Zr3     Zr   0.74681   0.85435   0.45348   1.000
    Zr4     Zr   0.25469   0.33226   0.88117   1.000
    Zr5     Zr   0.23202   0.93193   0.89631   1.000
    Zr6     Zr   0.04062   0.11967   0.90223   1.000
    Zr7     Zr   0.44045   0.14942   0.88310   1.000
    Zr8     Zr   0.74533   0.66768   0.38110   1.000
    Zr9     Zr   0.76797   0.06799   0.39622   1.000
    Zr10    Zr   0.95936   0.88026   0.40224   1.000
    Zr11    Zr   0.55956   0.85052   0.38319   1.000
    Zr12    Zr   0.40904   0.16917   0.93470   1.000
    Zr13    Zr   0.38497   0.12930   0.83635   1.000
    Zr14    Zr   0.07473   0.11574   0.84920   1.000
    Zr15    Zr   0.09174   0.11577   0.95003   1.000
    Zr16    Zr   0.24845   0.98770   0.94300   1.000
    Zr17    Zr   0.20770   0.96141   0.84503   1.000
    Zr18    Zr   0.25403   0.29757   0.93432   1.000
    Zr19    Zr   0.25414   0.27982   0.83340   1.000
    Zr20    Zr   0.59094   0.83077   0.43478   1.000
    Zr21    Zr   0.61508   0.87065   0.33636   1.000
    Zr22    Zr   0.92529   0.88421   0.34923   1.000
    Zr23    Zr   0.90821   0.88415   0.45005   1.000
    Zr24    Zr   0.75157   0.01220   0.44297   1.000
    Zr25    Zr   0.79227   0.03854   0.34490   1.000
    Zr26    Zr   0.74598   0.70233   0.43433   1.000
    Zr27    Zr   0.74588   0.72015   0.33349   1.000
    O28     O    0.75951   0.80048   0.33092   1.000
    O29     O    0.69411   0.87573   0.33236   1.000
    O30     O    0.78271   0.95967   0.33663   1.000
    O31     O    0.84922   0.88250   0.33879   1.000
    O32     O    0.74561   0.69392   0.35729   1.000
    O33     O    0.58732   0.86059   0.35977   1.000
    O34     O    0.78012   0.05327   0.37056   1.000
    O35     O    0.94233   0.88223   0.37573   1.000
    O36     O    0.74566   0.68501   0.40771   1.000
    O37     O    0.57525   0.84065   0.40898   1.000
    O38     O    0.75977   0.04009   0.41959   1.000
    O39     O    0.93378   0.88220   0.42614   1.000
    O40     O    0.74640   0.77834   0.44390   1.000
    O41     O    0.66888   0.84256   0.44413   1.000
    O42     O    0.74919   0.93327   0.44822   1.000
    O43     O    0.82751   0.86925   0.45176   1.000
    O44     O    0.24051   0.19949   0.83085   1.000
    O45     O    0.30593   0.12423   0.83232   1.000
    O46     O    0.21729   0.04028   0.83666   1.000
    O47     O    0.15081   0.11745   0.83875   1.000
    O48     O    0.25441   0.30604   0.85728   1.000
    O49     O    0.41271   0.13936   0.85972   1.000
    O50     O    0.21986   0.94667   0.87067   1.000
    O51     O    0.05768   0.11771   0.87571   1.000
    O52     O    0.25436   0.31492   0.90774   1.000
    O53     O    0.42475   0.15929   0.90890   1.000
    O54     O    0.24023   0.95982   0.91965   1.000
    O55     O    0.06618   0.11772   0.92613   1.000
    O56     O    0.25359   0.22156   0.94390   1.000
    O57     O    0.33110   0.15735   0.94409   1.000
    O58     O    0.25081   0.06662   0.94824   1.000
    O59     O    0.17245   0.13065   0.95175   1.000
    O60     O    0.24002   0.13235   0.89089   1.000
    O61     O    0.75998   0.86758   0.39092   1.000
    N62     N    0.74195   0.13952   0.89245   1.000
    O63     O    0.86361   0.13199   0.89899   1.000
    O64     O    0.61942   0.14398   0.88617   1.000
    N65     N    0.24976   0.63373   0.88821   1.000
    O66     O    0.25206   0.51110   0.88287   1.000
    O67     O    0.24331   0.75530   0.89388   1.000
    N68     N    0.23093   0.12263   0.39144   1.000
    O69     O    0.22690   0.11927   0.58699   1.000
    O70     O    0.24182   0.13321   0.19554   1.000
    N71     N    0.76896   0.87725   0.89145   1.000
    O72     O    0.77307   0.88062   0.08699   1.000
    O73     O    0.75808   0.86668   0.69555   1.000
    N74     N    0.75023   0.36620   0.38816   1.000
    O75     O    0.75668   0.24463   0.39382   1.000
    O76     O    0.74794   0.48884   0.38283   1.000
    N77     N    0.25804   0.86038   0.39276   1.000
    O78     O    0.38058   0.85593   0.38633   1.000
    O79     O    0.13637   0.86792   0.39915   1.000
loop_
    _geom_bond_atom_site_label_1
    _geom_bond_atom_site_label_2
    _geom_bond_distance
    _geom_bond_site_symmetry_2
    _ccdc_geom_bond_type
    Zr2    O28       1.04254      .   S
    Zr27   O28       1.04254      .   S
    Zr2    O29       1.03205      .   S
    Zr21   O29       1.03205      .   S
    Zr2    O30       1.04247      .   S
    Zr25   O30       1.04247  1_545   S
    Zr2    O31       1.02411      .   S
    Zr22   O31       1.02411      .   S
    Zr27   O32       0.63630      .   S
    Zr8    O32       0.63630      .   S
    Zr21   O33       0.63671      .   S
    Zr11   O33       0.63671      .   S
    Zr25   O34       0.63858      .   S
    Zr9    O34       0.63858      .   S
    Zr22   O35       0.63745      .   S
    Zr10   O35       0.63745      .   S
    Zr8    O36       0.63880      .   S
    Zr26   O36       0.63880      .   S
    Zr11   O37       0.63691      .   S
    Zr20   O37       0.63691      .   S
    Zr9    O38       0.63670      .   S
    Zr24   O38       0.63670      .   S
    Zr10   O39       0.63612      .   S
    Zr23   O39       0.63612      .   S
    Zr26   O40       1.02924      .   S
    Zr3    O40       1.02924      .   S
    Zr20   O41       1.02569      .   S
    Zr3    O41       1.02569      .   S
    Zr24   O42       1.04665  1_545   S
    Zr3    O42       1.04665      .   S
    Zr23   O43       1.03860      .   S
    Zr3    O43       1.03860      .   S
    Zr0    O44       1.04268      .   S
    Zr19   O44       1.04268      .   S
    Zr0    O45       1.03227      .   S
    Zr13   O45       1.03227      .   S
    Zr0    O46       1.04274      .   S
    Zr17   O46       1.04274  1_565   S
    Zr0    O47       1.02409      .   S
    Zr14   O47       1.02409      .   S
    Zr19   O48       0.63782      .   S
    Zr4    O48       0.63782      .   S
    Zr13   O49       0.63610      .   S
    Zr7    O49       0.63610      .   S
    Zr17   O50       0.63831      .   S
    Zr5    O50       0.63831      .   S
    Zr14   O51       0.63761      .   S
    Zr6    O51       0.63761      .   S
    Zr4    O52       0.63794      .   S
    Zr18   O52       0.63794      .   S
    Zr7    O53       0.63701      .   S
    Zr12   O53       0.63701      .   S
    Zr5    O54       0.63629      .   S
    Zr16   O54       0.63629      .   S
    Zr6    O55       0.63608      .   S
    Zr15   O55       0.63608      .   S
    Zr18   O56       1.02921      .   S
    Zr1    O56       1.02921      .   S
    Zr12   O57       1.02580      .   S
    Zr1    O57       1.02580      .   S
    Zr16   O58       1.04666  1_565   S
    Zr1    O58       1.04666      .   S
    Zr15   O59       1.03880      .   S
    Zr1    O59       1.03880      .   S
    Zr0    O60       1.41936      .   S
    Zr1    O60       1.41936      .   S
    Zr2    O61       1.41858      .   S
    Zr3    O61       1.41858      .   S
    N62    O63       1.63314      .   S
    Zr6    O63       2.37246  1_455   S
    N62    O64       1.63322      .   S
    Zr7    O64       2.37416      .   S
    N65    O66       1.63706      .   S
    Zr4    O66       2.37911      .   S
    N65    O67       1.63715      .   S
    Zr5    O67       2.37902      .   S
    N68    O69       4.38209      .   S
    Zr0    O69       5.40692      .   S
    N68    O70       4.39303      .   S
    Zr1    O70       5.42740  1_556   S
    N71    O72       4.38193  1_556   S
    Zr2    O72       5.40838      .   S
    N71    O73       4.39331      .   S
    Zr3    O73       5.42757      .   S
    N74    O75       1.63716      .   S
    Zr9    O75       2.37901      .   S
    N74    O76       1.63707      .   S
    Zr8    O76       2.37911      .   S
    N77    O78       1.63354      .   S
    Zr11   O78       2.37424      .   S
    N77    O79       1.63287      .   S
    Zr10   O79       2.37240  1_655   S
