# CIF file generated by openbabel 2.4.90, see http://openbabel.sf.net
data_I
_chemical_name_common ''
_cell_length_a 13.167
_cell_length_b 13.258
_cell_length_c 22.407
_cell_angle_alpha 89.986
_cell_angle_beta 89.981
_cell_angle_gamma 102.493
_space_group_name_H-M_alt 'P 1'
_space_group_name_Hall 'P 1'
loop_
    _symmetry_equiv_pos_as_xyz
    x,y,z
loop_
    _atom_site_label
    _atom_site_type_symbol
    _atom_site_fract_x
    _atom_site_fract_y
    _atom_site_fract_z
    _atom_site_occupancy
    N0      N    0.74195   0.13952   0.89245   1.000
    N1      N    0.24976   0.63373   0.88821   1.000
    N2      N    0.23093   0.12263   0.39144   1.000
    N3      N    0.76896   0.87725   0.89145   1.000
    N4      N    0.75023   0.36620   0.38816   1.000
    N5      N    0.25804   0.86038   0.39276   1.000
    Zr6     Zr   0.24090   0.13246   0.89076   1.000
    O7      O    0.05226   0.13222   0.89487   1.000
    O8      O    0.24648   0.32178   0.88681   1.000
    O9      O    0.24210   0.94388   0.89232   1.000
    O10     O    0.23390   0.12587   0.73888   1.000
    O11     O    0.43016   0.13822   0.88846   1.000
    O12     O    0.24136   0.13283   0.04315   1.000
    Zr13    Zr   0.75910   0.86747   0.39076   1.000
    O14     O    0.75789   0.05605   0.39229   1.000
    O15     O    0.75352   0.67815   0.38680   1.000
    O16     O    0.56984   0.86170   0.38855   1.000
    O17     O    0.94773   0.86770   0.39496   1.000
    O18     O    0.75859   0.86708   0.54315   1.000
    O19     O    0.76608   0.87405   0.23888   1.000
loop_
    _geom_bond_atom_site_label_1
    _geom_bond_atom_site_label_2
    _geom_bond_distance
    _geom_bond_site_symmetry_2
    _ccdc_geom_bond_type
    Zr6    O7        2.48488      .   S
    N0     O7        4.10824  1_655   S
    Zr6    O8        2.49669      .   S
    N1     O8        4.12683      .   S
    Zr6    O9        2.50395  1_545   S
    N1     O9        4.13595      .   S
    Zr6    O10       3.40513      .   S
    N2     O10       7.78510      .   S
    Zr6    O11       2.47712      .   S
    N0     O11       4.10259      .   S
    Zr6    O12       3.41468  1_556   S
    N2     O12       7.80599      .   S
    Zr13   O14       2.50390  1_565   S
    N4     O14       4.13595      .   S
    Zr13   O15       2.49672      .   S
    N4     O15       4.12686      .   S
    Zr13   O16       2.47709      .   S
    N5     O16       4.10274      .   S
    Zr13   O17       2.48491      .   S
    N5     O17       4.10817  1_455   S
    Zr13   O18       3.41462      .   S
    N3     O18       7.80619      .   S
    Zr13   O19       3.40513      .   S
    N3     O19       7.78494  1_556   S
