# CIF file generated by openbabel 2.4.90, see http://openbabel.sf.net
data_I
_chemical_name_common ''
_cell_length_a 7.983
_cell_length_b 14.441
_cell_length_c 14.453
_cell_angle_alpha 89.786
_cell_angle_beta 89.654
_cell_angle_gamma 85.679
_space_group_name_H-M_alt 'P 1'
_space_group_name_Hall 'P 1'
loop_
    _symmetry_equiv_pos_as_xyz
    x,y,z
loop_
    _atom_site_label
    _atom_site_type_symbol
    _atom_site_fract_x
    _atom_site_fract_y
    _atom_site_fract_z
    _atom_site_occupancy
    N0      N    0.44816   0.26361   0.24211   1.000
    N1      N    0.95296   0.26341   0.24629   1.000
    N2      N    0.06489   0.23643   0.74621   1.000
    N3      N    0.45071   0.76395   0.25736   1.000
    N4      N    0.06484   0.73689   0.75341   1.000
    N5      N    0.55182   0.23628   0.74342   1.000
    N6      N    0.55240   0.73614   0.75628   1.000
    N7      N    0.95444   0.76364   0.25394   1.000
    Zr8     Zr   0.75450   0.50166   0.00191   1.000
    O9      O    0.88203   0.39478   0.89899   1.000
    O10     O    0.62929   0.60752   0.10463   1.000
    O11     O    0.82368   0.41245   0.09469   1.000
    O12     O    0.68502   0.58970   0.90887   1.000
    Zr13    Zr   0.24722   0.49843   0.99838   1.000
    O14     O    0.18240   0.58779   0.90528   1.000
    O15     O    0.31575   0.41023   0.09061   1.000
    O16     O    0.37306   0.39262   0.89600   1.000
    O17     O    0.12593   0.60529   0.10118   1.000
    Zr18    Zr   0.75292   0.00177   0.49791   1.000
    O19     O    0.68370   0.08979   0.59088   1.000
    O20     O    0.88125   0.89507   0.60074   1.000
    O21     O    0.82345   0.91262   0.40529   1.000
    O22     O    0.62706   0.10743   0.39509   1.000
    Zr23    Zr   0.24742   0.99828   0.50139   1.000
    O24     O    0.18241   0.08749   0.59439   1.000
    O25     O    0.12539   0.10509   0.39879   1.000
    O26     O    0.37341   0.89248   0.60374   1.000
    O27     O    0.31704   0.91029   0.40901   1.000
loop_
    _geom_bond_atom_site_label_1
    _geom_bond_atom_site_label_2
    _geom_bond_distance
    _geom_bond_site_symmetry_2
    _ccdc_geom_bond_type
    Zr8    O9        2.32238  1_554   S
    N2     O9        3.42511  1_455   S
    Zr8    O10       2.30415      .   S
    N3     O10       3.39440      .   S
    Zr8    O11       1.91088      .   S
    N1     O11       3.18676      .   S
    Zr8    O12       1.90335  1_554   S
    N6     O12       3.17993      .   S
    Zr13   O14       1.90737      .   S
    N4     O14       3.16542      .   S
    Zr13   O15       1.89471  1_556   S
    N0     O15       3.17034      .   S
    Zr13   O16       2.30249      .   S
    N5     O16       3.39262      .   S
    Zr13   O17       2.30239  1_556   S
    N7     O17       3.39225  1_655   S
    Zr18   O19       1.90382      .   S
    N5     O19       3.18048      .   S
    Zr18   O20       2.32301  1_545   S
    N4     O20       3.42510  1_455   S
    Zr18   O21       1.91333  1_545   S
    N7     O21       3.18992      .   S
    Zr18   O22       2.30560      .   S
    N0     O22       3.39569      .   S
    Zr23   O24       1.90774  1_565   S
    N2     O24       3.16665      .   S
    Zr23   O25       2.30238  1_565   S
    N1     O25       3.39195  1_655   S
    Zr23   O26       2.30295      .   S
    N6     O26       3.39327      .   S
    Zr23   O27       1.89828      .   S
    N3     O27       3.17411      .   S
