# CIF file generated by openbabel 2.4.90, see http://openbabel.sf.net
data_I
_chemical_name_common ''
_cell_length_a 6.902
_cell_length_b 7.896
_cell_length_c 10.093
_cell_angle_alpha 93.851
_cell_angle_beta 109.485
_cell_angle_gamma 105.528
_space_group_name_H-M_alt 'P 1'
_space_group_name_Hall 'P 1'
loop_
    _symmetry_equiv_pos_as_xyz
    x,y,z
loop_
    _atom_site_label
    _atom_site_type_symbol
    _atom_site_fract_x
    _atom_site_fract_y
    _atom_site_fract_z
    _atom_site_occupancy
    Cd0     Cd   0.48050   0.02007   0.53594   1.000
    C1      C    0.33280   0.25545   0.66736   1.000
    C2      C    0.33281   0.25544   0.16737   1.000
    C3      C    0.77514   0.13877   0.86381   1.000
    C4      C    0.77515   0.13877   0.36382   1.000
    O5      O    0.23291   0.09148   0.60826   1.000
    O6      O    0.23292   0.09148   0.10828   1.000
    O7      O    0.50664   0.34845   0.66126   1.000
    O8      O    0.50664   0.34845   0.16127   1.000
    O9      O    0.67285   0.00150   0.76936   1.000
    O10     O    0.67285   0.00151   0.26937   1.000
    O11     O    0.73774   0.17814   0.97561   1.000
    O12     O    0.73775   0.17814   0.47562   1.000
    Cd13    Cd   0.48050   0.02006   0.03596   1.000
    Ts14    Ts   0.40906   0.92724   0.51302   1.000
    Og15    Og   0.29912   0.28347   0.69649   1.000
    Og16    Og   0.29912   0.28347   0.19650   1.000
    Og17    Og   0.83755   0.18594   0.85988   1.000
    Og18    Og   0.83755   0.18594   0.35990   1.000
    Ts19    Ts   0.40908   0.92723   0.02397   1.000
loop_
    _geom_bond_atom_site_label_1
    _geom_bond_atom_site_label_2
    _geom_bond_distance
    _geom_bond_site_symmetry_2
    _ccdc_geom_bond_type
    Cd13   O6        2.25029      .   S
    Cd13   O10       2.32335      .   S
    Cd13   O11       2.17215  1_554   S
    O6     C2        1.28502      .   S
    O8     C2        1.25151      .   S
    O10    C4        1.25873      .   S
    C4     O12       1.27543      .   S
    O12    Cd0       2.17205      .   S
    Cd0    O5        2.25028      .   S
    Cd0    O9        2.32343      .   S
    O5     C1        1.28503      .   S
    O7     C1        1.25151      .   S
    O9     C3        1.25873      .   S
    C3     O11       1.27543      .   S
    Cd0    Ts14      0.73586  1_545   S
    C1     Og15      0.50388      .   S
    C2     Og16      0.50388      .   S
    C3     Og17      0.50332      .   S
    C4     Og18      0.50332      .   S
    Cd13   Ts19      0.74145  1_545   S
