# CIF file generated by openbabel 2.4.90, see http://openbabel.sf.net
data_I
_chemical_name_common ''
_cell_length_a 18.445
_cell_length_b 18.422
_cell_length_c 18.413
_cell_angle_alpha 60.144
_cell_angle_beta 60.178
_cell_angle_gamma 60.191
_space_group_name_H-M_alt 'P 1'
_space_group_name_Hall 'P 1'
loop_
    _symmetry_equiv_pos_as_xyz
    x,y,z
loop_
    _atom_site_label
    _atom_site_type_symbol
    _atom_site_fract_x
    _atom_site_fract_y
    _atom_site_fract_z
    _atom_site_occupancy
    H0      H    0.66410   0.95223   0.43146   1.000
    H1      H    0.95236   0.66437   0.95222   1.000
    H2      H    0.43232   0.95131   0.66452   1.000
    H3      H    0.95125   0.43198   0.95183   1.000
    H4      H    0.66411   0.43158   0.95221   1.000
    H5      H    0.95137   0.95183   0.43186   1.000
    H6      H    0.43229   0.66440   0.95138   1.000
    H7      H    0.95228   0.95215   0.66449   1.000
    H8      H    0.66408   0.95255   0.95259   1.000
    H9      H    0.95159   0.43187   0.66451   1.000
    H10     H    0.43256   0.95117   0.95131   1.000
    H11     H    0.95179   0.66438   0.43166   1.000
    H12     H    0.04821   0.33561   0.56835   1.000
    H13     H    0.33593   0.04744   0.04741   1.000
    H14     H    0.04841   0.56812   0.33550   1.000
    H15     H    0.56744   0.04882   0.04870   1.000
    H16     H    0.56771   0.33559   0.04863   1.000
    H17     H    0.04864   0.04816   0.56816   1.000
    H18     H    0.33590   0.56841   0.04780   1.000
    H19     H    0.04772   0.04784   0.33552   1.000
    H20     H    0.04763   0.33562   0.04700   1.000
    H21     H    0.56768   0.04867   0.33549   1.000
    H22     H    0.04875   0.56801   0.04818   1.000
    H23     H    0.33590   0.04775   0.56855   1.000
    C24     C    0.59221   0.97354   0.46071   1.000
    C25     C    0.97362   0.59236   0.97350   1.000
    C26     C    0.46119   0.97303   0.59245   1.000
    C27     C    0.97300   0.46101   0.97332   1.000
    C28     C    0.59222   0.46077   0.97354   1.000
    C29     C    0.97306   0.97331   0.46094   1.000
    C30     C    0.46117   0.59238   0.97308   1.000
    C31     C    0.97357   0.97348   0.59244   1.000
    C32     C    0.59220   0.97371   0.97375   1.000
    C33     C    0.97319   0.46093   0.59240   1.000
    C34     C    0.46133   0.97294   0.97304   1.000
    C35     C    0.97330   0.59237   0.46082   1.000
    C36     C    0.02670   0.40762   0.53919   1.000
    C37     C    0.40780   0.02628   0.02626   1.000
    C38     C    0.02681   0.53905   0.40757   1.000
    C39     C    0.53867   0.02705   0.02690   1.000
    C40     C    0.53883   0.40761   0.02694   1.000
    C41     C    0.02694   0.02668   0.53907   1.000
    C42     C    0.40778   0.53922   0.02647   1.000
    C43     C    0.02643   0.02651   0.40758   1.000
    C44     C    0.02638   0.40763   0.02648   1.000
    C45     C    0.53881   0.02696   0.40756   1.000
    C46     C    0.02700   0.53898   0.02669   1.000
    C47     C    0.40779   0.02644   0.53930   1.000
    C48     C    0.55374   0.94622   0.55350   1.000
    C49     C    0.94627   0.55372   0.94649   1.000
    C50     C    0.55372   0.55349   0.94626   1.000
    C51     C    0.94628   0.94645   0.55372   1.000
    C52     C    0.55387   0.94634   0.94640   1.000
    C53     C    0.94615   0.55364   0.55360   1.000
    C54     C    0.05385   0.44634   0.44640   1.000
    C55     C    0.44613   0.05369   0.05350   1.000
    C56     C    0.44628   0.44649   0.05377   1.000
    C57     C    0.05372   0.05354   0.44629   1.000
    C58     C    0.05372   0.44627   0.05353   1.000
    C59     C    0.44627   0.05375   0.44652   1.000
loop_
    _geom_bond_atom_site_label_1
    _geom_bond_atom_site_label_2
    _geom_bond_distance
    _geom_bond_site_symmetry_2
    _ccdc_geom_bond_type
    C37    H13       1.08862      .   S
    C37    C55       1.40216      .   S
    C37    C34       1.39014  1_544   S
    C42    H18       1.08861      .   S
    C42    C56       1.40315      .   S
    C42    C30       1.39011  1_554   S
    C44    H20       1.08968      .   S
    C44    C58       1.40319      .   S
    C44    C27       1.39001  1_454   S
    C46    H22       1.08863      .   S
    C46    C58       1.40330      .   S
    C46    C25       1.39040  1_454   S
    C39    H15       1.08966      .   S
    C39    C55       1.40333      .   S
    C39    C32       1.38925  1_544   S
    C40    H16       1.08857      .   S
    C40    C56       1.40322      .   S
    C40    C28       1.39013  1_554   S
    H21    C45       1.08857      .   S
    H14    C38       1.08868      .   S
    H19    C43       1.08866      .   S
    C45    C59       1.40325      .   S
    C45    C24       1.39015  1_545   S
    C38    C54       1.40318      .   S
    C38    C35       1.39021  1_455   S
    C43    C57       1.40313      .   S
    C43    C29       1.39044  1_445   S
    H0     C24       1.08861      .   S
    H11    C35       1.08858      .   S
    H5     C29       1.08850      .   S
    C57    C41       1.40335      .   S
    C54    C36       1.40338      .   S
    C59    C47       1.40308      .   S
    C24    C48       1.40323      .   S
    C35    C53       1.40323      .   S
    C29    C51       1.40335      .   S
    C41    H17       1.08867      .   S
    C41    C31       1.39042  1_445   S
    C36    H12       1.08858      .   S
    C36    C33       1.38969  1_455   S
    C47    H23       1.08861      .   S
    C47    C26       1.39015  1_545   S
    C48    C26       1.40323      .   S
    C53    C33       1.40313      .   S
    C51    C31       1.40329      .   S
    C33    H9        1.08926      .   S
    C31    H7        1.08850      .   S
    C26    H2        1.08857      .   S
    C50    C30       1.40323      .   S
    C50    C28       1.40315      .   S
    C52    C34       1.40333      .   S
    C52    C32       1.40317      .   S
    C49    C27       1.40330      .   S
    C49    C25       1.40276      .   S
    H10    C34       1.08856      .   S
    H6     C30       1.08857      .   S
    H3     C27       1.08864      .   S
    H4     C28       1.08861      .   S
    H1     C25       1.08864      .   S
    H8     C32       1.08863      .   S
