# CIF file generated by openbabel 2.4.90, see http://openbabel.sf.net
data_I
_chemical_name_common ''
_cell_length_a 18.445
_cell_length_b 18.422
_cell_length_c 18.413
_cell_angle_alpha 60.144
_cell_angle_beta 60.178
_cell_angle_gamma 60.191
_space_group_name_H-M_alt 'P 1'
_space_group_name_Hall 'P 1'
loop_
    _symmetry_equiv_pos_as_xyz
    x,y,z
loop_
    _atom_site_label
    _atom_site_type_symbol
    _atom_site_fract_x
    _atom_site_fract_y
    _atom_site_fract_z
    _atom_site_occupancy
    Zn0     Zn   0.79361   0.79371   0.79380   1.000
    Zn1     Zn   0.61987   0.79318   0.79328   1.000
    Zn2     Zn   0.79320   0.61949   0.79350   1.000
    Zn3     Zn   0.20673   0.20651   0.38062   1.000
    Zn4     Zn   0.20639   0.20628   0.20620   1.000
    Zn5     Zn   0.20680   0.38049   0.20651   1.000
    Zn6     Zn   0.38013   0.20680   0.20673   1.000
    Zn7     Zn   0.79327   0.79348   0.61939   1.000
    C8      C    0.61112   0.88880   0.61073   1.000
    C9      C    0.88887   0.61111   0.88924   1.000
    C10     C    0.61109   0.61073   0.88880   1.000
    C11     C    0.88888   0.88920   0.61110   1.000
    C12     C    0.61136   0.88891   0.88916   1.000
    C13     C    0.88863   0.61098   0.61090   1.000
    C14     C    0.11138   0.38901   0.38912   1.000
    C15     C    0.38864   0.11099   0.11094   1.000
    C16     C    0.38891   0.38926   0.11119   1.000
    C17     C    0.11111   0.11080   0.38891   1.000
    C18     C    0.11115   0.38888   0.11070   1.000
    C19     C    0.38888   0.11122   0.38920   1.000
    O20     O    0.75013   0.75000   0.70000   1.000
    O21     O    0.24987   0.24999   0.25002   1.000
    O22     O    0.69479   0.86675   0.57103   1.000
    O23     O    0.86696   0.69493   0.86725   1.000
    O24     O    0.57168   0.86651   0.69460   1.000
    O25     O    0.86654   0.57149   0.86708   1.000
    O26     O    0.69476   0.57108   0.86685   1.000
    O27     O    0.86658   0.86707   0.57142   1.000
    O28     O    0.57165   0.69454   0.86640   1.000
    O29     O    0.86698   0.86714   0.69498   1.000
    O30     O    0.69503   0.86714   0.86721   1.000
    O31     O    0.86638   0.57137   0.69476   1.000
    O32     O    0.57193   0.86656   0.86683   1.000
    O33     O    0.86654   0.69479   0.57122   1.000
    O34     O    0.13346   0.30519   0.42879   1.000
    O35     O    0.30497   0.13287   0.13278   1.000
    O36     O    0.13362   0.42862   0.30525   1.000
    O37     O    0.42807   0.13345   0.13316   1.000
    O38     O    0.42835   0.30545   0.13354   1.000
    O39     O    0.13342   0.13291   0.42859   1.000
    O40     O    0.30525   0.42890   0.13317   1.000
    O41     O    0.13302   0.13285   0.30500   1.000
    O42     O    0.13304   0.30506   0.13277   1.000
    O43     O    0.42832   0.13347   0.30542   1.000
    O44     O    0.13345   0.42849   0.13294   1.000
    O45     O    0.30521   0.13322   0.42898   1.000
loop_
    _geom_bond_atom_site_label_1
    _geom_bond_atom_site_label_2
    _geom_bond_distance
    _geom_bond_site_symmetry_2
    _ccdc_geom_bond_type
    C18    O42       1.27715      .   S
    C18    O44       1.27797      .   S
    C15    O35       1.27731      .   S
    C15    O37       1.27710      .   S
    C16    O40       1.27716      .   S
    C16    O38       1.27709      .   S
    O42    Zn4       1.97277      .   S
    O35    Zn4       1.97309      .   S
    O44    Zn5       1.97184      .   S
    O37    Zn6       1.97142      .   S
    O40    Zn5       1.97187      .   S
    O38    Zn6       1.97128      .   S
    Zn4    O41       1.97283      .   S
    Zn5    O21       1.96709      .   S
    Zn5    O36       1.97171      .   S
    Zn6    O21       1.96653      .   S
    Zn6    O43       1.97127      .   S
    O41    C17       1.27780      .   S
    O36    C14       1.27717      .   S
    O43    C19       1.27582      .   S
    Zn3    O39       1.97217      .   S
    Zn3    O34       1.97192      .   S
    Zn3    O45       1.97207      .   S
    C17    O39       1.27720      .   S
    C14    O34       1.27714      .   S
    C19    O45       1.27739      .   S
    O22    C8        1.27720      .   S
    O22    Zn7       1.97207      .   S
    O33    C13       1.27717      .   S
    O33    Zn7       1.97192      .   S
    O27    C11       1.27720      .   S
    O27    Zn7       1.97216      .   S
    C8     O24       1.27709      .   S
    C13    O31       1.27703      .   S
    C11    O29       1.27731      .   S
    Zn7    O20       1.32400      .   S
    O24    Zn1       1.97113      .   S
    O31    Zn2       1.97171      .   S
    O29    Zn0       1.97292      .   S
    O20    Zn1       2.17054      .   S
    Zn1    O28       1.97127      .   S
    Zn1    O32       1.97145      .   S
    Zn2    O26       1.97187      .   S
    Zn2    O25       1.97190      .   S
    Zn0    O30       1.97323      .   S
    Zn0    O23       1.97293      .   S
    O28    C10       1.27709      .   S
    O32    C12       1.27713      .   S
    O26    C10       1.27716      .   S
    O25    C9        1.27723      .   S
    O30    C12       1.27730      .   S
    O23    C9        1.27726      .   S
    O20    Zn2       2.17152      .   S
    O21    Zn3       1.96729      .   S
    O21    Zn4       1.96853      .   S
