# CIF file generated by openbabel 2.4.90, see http://openbabel.sf.net
data_I
_chemical_name_common ''
_cell_length_a 18.445
_cell_length_b 18.422
_cell_length_c 18.413
_cell_angle_alpha 60.144
_cell_angle_beta 60.178
_cell_angle_gamma 60.191
_space_group_name_H-M_alt 'P 1'
_space_group_name_Hall 'P 1'
loop_
    _symmetry_equiv_pos_as_xyz
    x,y,z
loop_
    _atom_site_label
    _atom_site_type_symbol
    _atom_site_fract_x
    _atom_site_fract_y
    _atom_site_fract_z
    _atom_site_occupancy
    C0      C    0.61112   0.88880   0.61073   1.000
    C1      C    0.88887   0.61111   0.88924   1.000
    C2      C    0.61109   0.61073   0.88880   1.000
    C3      C    0.88888   0.88920   0.61110   1.000
    C4      C    0.61136   0.88891   0.88916   1.000
    C5      C    0.88863   0.61098   0.61090   1.000
    C6      C    0.11138   0.38901   0.38912   1.000
    C7      C    0.38864   0.11099   0.11094   1.000
    C8      C    0.38891   0.38926   0.11119   1.000
    C9      C    0.11111   0.11080   0.38891   1.000
    C10     C    0.11115   0.38888   0.11070   1.000
    C11     C    0.38888   0.11122   0.38920   1.000
