# CIF file generated by openbabel 2.4.90, see http://openbabel.sf.net
data_I
_chemical_name_common ''
_cell_length_a 18.445
_cell_length_b 18.422
_cell_length_c 18.413
_cell_angle_alpha 60.144
_cell_angle_beta 60.178
_cell_angle_gamma 60.191
_space_group_name_H-M_alt 'P 1'
_space_group_name_Hall 'P 1'
loop_
    _symmetry_equiv_pos_as_xyz
    x,y,z
loop_
    _atom_site_label
    _atom_site_type_symbol
    _atom_site_fract_x
    _atom_site_fract_y
    _atom_site_fract_z
    _atom_site_occupancy
    N0      N    0.50000   0.99999   0.50001   1.000
    N1      N    0.50000   0.00000   0.99999   1.000
    N2      N    0.00000   0.49999   0.50000   1.000
    N3      N    0.00000   0.99999   0.50001   1.000
    N4      N    1.00000   0.49999   0.99992   1.000
    N5      N    0.50000   0.49999   0.00001   1.000
    Zr6     Zr   0.74999   0.74996   0.74781   1.000
    O7      O    0.85439   0.64558   0.85335   1.000
    O8      O    0.64565   0.85438   0.85334   1.000
    O9      O    0.64560   0.85435   0.64443   1.000
    O10     O    0.85434   0.64556   0.64447   1.000
    O11     O    0.64560   0.64550   0.85329   1.000
    O12     O    0.85439   0.85443   0.64451   1.000
    Zr13    Zr   0.25001   0.25003   0.25002   1.000
    O14     O    0.35440   0.35448   0.14563   1.000
    O15     O    0.35435   0.14560   0.14556   1.000
    O16     O    0.14561   0.35441   0.14552   1.000
    O17     O    0.14561   0.14556   0.35441   1.000
    O18     O    0.14566   0.35443   0.35445   1.000
    O19     O    0.35440   0.14563   0.35448   1.000
loop_
    _geom_bond_atom_site_label_1
    _geom_bond_atom_site_label_2
    _geom_bond_distance
    _geom_bond_site_symmetry_2
    _ccdc_geom_bond_type
    Zr6    O7        2.73901      .   S
    N4     O7        3.81201      .   S
    Zr6    O8        2.73907      .   S
    N1     O8        3.81257  1_545   S
    Zr6    O9        2.71070      .   S
    N0     O9        3.78405      .   S
    Zr6    O10       2.71014      .   S
    N2     O10       3.78360  1_455   S
    Zr6    O11       2.72502      .   S
    N5     O11       3.79830  1_554   S
    Zr6    O12       2.72529      .   S
    N3     O12       3.79897  1_455   S
    Zr13   O14       2.72491      .   S
    N5     O14       3.79819      .   S
    Zr13   O15       2.72504      .   S
    N1     O15       3.79852  1_556   S
    Zr13   O16       2.72541      .   S
    N4     O16       3.79935  1_656   S
    Zr13   O17       2.72526      .   S
    N3     O17       3.79898  1_565   S
    Zr13   O18       2.72426      .   S
    N2     O18       3.79764      .   S
    Zr13   O19       2.72473      .   S
    N0     O19       3.79832  1_565   S
