# CIF file generated by openbabel 2.4.90, see http://openbabel.sf.net
data_I
_chemical_name_common ''
_cell_length_a 12.811
_cell_length_b 14.28
_cell_length_c 14.19
_cell_angle_alpha 78.507
_cell_angle_beta 63.467
_cell_angle_gamma 63.527
_space_group_name_H-M_alt 'P 1'
_space_group_name_Hall 'P 1'
loop_
    _symmetry_equiv_pos_as_xyz
    x,y,z
loop_
    _atom_site_label
    _atom_site_type_symbol
    _atom_site_fract_x
    _atom_site_fract_y
    _atom_site_fract_z
    _atom_site_occupancy
    H0      H    0.71866   0.41041   0.25897   1.000
    H1      H    0.78354   0.36935   0.12794   1.000
    H2      H    0.35830   0.24144   0.08680   1.000
    H3      H    0.29293   0.37057   0.13100   1.000
    H4      H    0.37763   0.59472   0.74639   1.000
    H5      H    0.27531   0.63661   0.87757   1.000
    H6      H    0.69577   0.75329   0.90900   1.000
    H7      H    0.79897   0.62350   0.86562   1.000
    H8      H    0.22384   0.24490   0.90792   1.000
    H9      H    0.16330   0.37384   0.86260   1.000
    H10     H    0.69651   0.41200   0.74041   1.000
    H11     H    0.67096   0.37220   0.87196   1.000
    H12     H    0.37937   0.75282   0.08982   1.000
    H13     H    0.40499   0.62287   0.13274   1.000
    H14     H    0.85184   0.59145   0.25702   1.000
    H15     H    0.91287   0.63569   0.12690   1.000
    H16     H    0.37704   0.74860   0.59353   1.000
    H17     H    0.27470   0.87833   0.63747   1.000
    H18     H    0.69621   0.90677   0.75542   1.000
    H19     H    0.79931   0.86416   0.62455   1.000
    H20     H    0.71911   0.25584   0.41124   1.000
    H21     H    0.78516   0.12671   0.36688   1.000
    H22     H    0.35865   0.08705   0.23940   1.000
    H23     H    0.29420   0.12832   0.37032   1.000
    H24     H    0.37900   0.08954   0.75665   1.000
    H25     H    0.40534   0.12980   0.62513   1.000
    H26     H    0.85226   0.25594   0.58951   1.000
    H27     H    0.91292   0.12731   0.63545   1.000
    H28     H    0.22502   0.90568   0.24369   1.000
    H29     H    0.16302   0.86294   0.37434   1.000
    H30     H    0.69627   0.74313   0.41241   1.000
    H31     H    0.67103   0.87339   0.37070   1.000
    H32     H    0.67046   0.26066   0.25991   1.000
    H33     H    0.83180   0.18507   0.18248   1.000
    H34     H    0.40773   0.23647   0.23781   1.000
    H35     H    0.24659   0.31240   0.31540   1.000
    H36     H    0.18320   0.74753   0.74709   1.000
    H37     H    0.19810   0.82125   0.82256   1.000
    H38     H    0.89012   0.75451   0.75628   1.000
    H39     H    0.87663   0.68003   0.68054   1.000
    H40     H    0.18342   0.23948   0.75485   1.000
    H41     H    0.27085   0.31445   0.67820   1.000
    H42     H    0.89275   0.26279   0.74199   1.000
    H43     H    0.80594   0.18759   0.81938   1.000
    H44     H    0.18312   0.75335   0.24141   1.000
    H45     H    0.26972   0.67873   0.31780   1.000
    H46     H    0.89277   0.74349   0.26154   1.000
    H47     H    0.80630   0.81909   0.18530   1.000
    C48     C    0.79205   0.34498   0.20370   1.000
    C49     C    0.28501   0.29495   0.15389   1.000
    C50     C    0.33451   0.65997   0.80108   1.000
    C51     C    0.73953   0.69965   0.84268   1.000
    C52     C    0.24592   0.29785   0.84080   1.000
    C53     C    0.68763   0.34702   0.79624   1.000
    C54     C    0.38829   0.69894   0.15623   1.000
    C55     C    0.83012   0.65779   0.20333   1.000
    C56     C    0.33413   0.80192   0.66002   1.000
    C57     C    0.73976   0.84113   0.70107   1.000
    C58     C    0.79276   0.20247   0.34420   1.000
    C59     C    0.28557   0.15262   0.29461   1.000
    C60     C    0.38840   0.15461   0.70110   1.000
    C61     C    0.83026   0.20330   0.65698   1.000
    C62     C    0.24606   0.83999   0.29816   1.000
    C63     C    0.68760   0.79774   0.34642   1.000
    C64     C    0.76862   0.24527   0.24446   1.000
    C65     C    0.30942   0.25211   0.25350   1.000
    C66     C    0.25323   0.76086   0.76093   1.000
    C67     C    0.82074   0.74068   0.74196   1.000
    C68     C    0.26606   0.25465   0.74055   1.000
    C69     C    0.81024   0.24718   0.75680   1.000
    C70     C    0.26568   0.73960   0.25654   1.000
    C71     C    0.81031   0.75766   0.24607   1.000
loop_
    _geom_bond_atom_site_label_1
    _geom_bond_atom_site_label_2
    _geom_bond_distance
    _geom_bond_site_symmetry_2
    _ccdc_geom_bond_type
    H2     C49       1.10608      .   S
    H12    C54       1.10539      .   S
    H15    C55       1.10029      .   S
    H1     C48       1.10019      .   S
    H3     C49       1.10024      .   S
    H13    C54       1.10021      .   S
    C49    C65       1.53289      .   S
    C54    C70       1.53272      .   S
    H33    C64       1.10118      .   S
    H47    C71       1.10173      .   S
    C55    C71       1.53312      .   S
    C55    H14       1.10546      .   S
    C48    C64       1.53287      .   S
    C48    H0        1.10545      .   S
    H34    C65       1.09735      .   S
    H22    C59       1.10567      .   S
    H44    C70       1.09735      .   S
    H28    C62       1.10542      .   S
    C64    H32       1.09737      .   S
    C64    C58       1.53301      .   S
    C71    H46       1.09737      .   S
    C71    C63       1.53272      .   S
    C65    C59       1.53286      .   S
    C65    H35       1.10118      .   S
    C70    C62       1.53308      .   S
    C70    H45       1.10132      .   S
    C59    H23       1.10011      .   S
    C62    H29       1.10027      .   S
    C58    H21       1.10028      .   S
    C58    H20       1.10539      .   S
    C63    H31       1.09973      .   S
    C63    H30       1.10547      .   S
    H26    C61       1.10547      .   S
    H16    C56       1.10541      .   S
    H19    C57       1.10023      .   S
    H25    C60       1.09975      .   S
    H27    C61       1.10031      .   S
    H17    C56       1.10026      .   S
    C61    C69       1.53316      .   S
    C56    C66       1.53288      .   S
    H41    C68       1.10125      .   S
    H39    C67       1.10129      .   S
    C57    C67       1.53295      .   S
    C57    H18       1.10547      .   S
    C60    C68       1.53274      .   S
    C60    H24       1.10560      .   S
    H10    C53       1.10559      .   S
    C68    H40       1.09734      .   S
    C68    C52       1.53314      .   S
    C67    H38       1.09736      .   S
    C67    C51       1.53288      .   S
    H42    C69       1.09733      .   S
    H4     C50       1.10543      .   S
    H36    C66       1.09734      .   S
    C69    C53       1.53272      .   S
    C69    H43       1.10121      .   S
    C66    C50       1.53290      .   S
    C66    H37       1.10135      .   S
    C53    H11       1.09994      .   S
    C50    H5        1.10020      .   S
    C52    H9        1.10032      .   S
    C52    H8        1.10539      .   S
    C51    H7        1.10021      .   S
    C51    H6        1.10447      .   S
