# CIF file generated by openbabel 2.4.90, see http://openbabel.sf.net
data_I
_chemical_name_common ''
_cell_length_a 12.811
_cell_length_b 14.28
_cell_length_c 14.19
_cell_angle_alpha 78.507
_cell_angle_beta 63.467
_cell_angle_gamma 63.527
_space_group_name_H-M_alt 'P 1'
_space_group_name_Hall 'P 1'
loop_
    _symmetry_equiv_pos_as_xyz
    x,y,z
loop_
    _atom_site_label
    _atom_site_type_symbol
    _atom_site_fract_x
    _atom_site_fract_y
    _atom_site_fract_z
    _atom_site_occupancy
    Cu0     Cu   0.64576   0.53558   0.99972   1.000
    Cu1     Cu   0.43048   0.50046   0.96329   1.000
    Cu2     Cu   0.89433   0.50032   0.03792   1.000
    Cu3     Cu   0.64580   0.99874   0.53687   1.000
    Cu4     Cu   0.18192   0.99854   0.46233   1.000
    Cu5     Cu   0.89463   0.03709   0.50030   1.000
    Cu6     Cu   0.43034   0.96368   0.50070   1.000
    Cu7     Cu   0.18181   0.46218   0.99905   1.000
    C8      C    0.92078   0.33001   0.19170   1.000
    C9      C    0.15632   0.30684   0.16873   1.000
    C10     C    0.43981   0.67194   0.81058   1.000
    C11     C    0.63476   0.69021   0.82975   1.000
    C12     C    0.36255   0.30892   0.82793   1.000
    C13     C    0.57429   0.33173   0.80743   1.000
    C14     C    0.50171   0.68929   0.17048   1.000
    C15     C    0.71354   0.67032   0.19233   1.000
    C16     C    0.43963   0.81074   0.67233   1.000
    C17     C    0.63475   0.82887   0.69134   1.000
    C18     C    0.92119   0.19093   0.32969   1.000
    C19     C    0.15670   0.16776   0.30673   1.000
    C20     C    0.50184   0.16936   0.69053   1.000
    C21     C    0.71364   0.19203   0.67012   1.000
    C22     C    0.36258   0.82757   0.30918   1.000
    C23     C    0.57427   0.80814   0.33150   1.000
    C24     C    0.97889   0.25452   0.25482   1.000
    C25     C    0.09860   0.24328   0.24366   1.000
    C26     C    0.48714   0.74609   0.74640   1.000
    C27     C    0.58738   0.75477   0.75554   1.000
    C28     C    0.48400   0.24500   0.75395   1.000
    C29     C    0.59219   0.25599   0.74409   1.000
    C30     C    0.48394   0.75345   0.24555   1.000
    C31     C    0.59212   0.74417   0.25625   1.000
    Br32    Br   0.03790   0.58679   0.91303   1.000
    Br33    Br   0.53899   0.41166   0.08631   1.000
    Br34    Br   0.20112   0.58442   0.08910   1.000
    Br35    Br   0.87546   0.41221   0.91327   1.000
    Br36    Br   0.53919   0.08579   0.41210   1.000
    Br37    Br   0.03712   0.91373   0.58820   1.000
    Br38    Br   0.87540   0.91324   0.41214   1.000
    Br39    Br   0.20094   0.08845   0.58540   1.000
    N40     N    0.09804   0.37661   0.11035   1.000
    N41     N    0.97868   0.38887   0.12260   1.000
    N42     N    0.58660   0.62149   0.88890   1.000
    N43     N    0.48858   0.61190   0.87880   1.000
    N44     N    0.45760   0.39023   0.87644   1.000
    N45     N    0.35075   0.37826   0.88728   1.000
    N46     N    0.72537   0.61088   0.12295   1.000
    N47     N    0.61847   0.62089   0.11154   1.000
    N48     N    0.58649   0.88846   0.62250   1.000
    N49     N    0.48829   0.87901   0.61269   1.000
    N50     N    0.09852   0.10927   0.37627   1.000
    N51     N    0.97924   0.12148   0.38837   1.000
    N52     N    0.72552   0.12220   0.61128   1.000
    N53     N    0.61862   0.11037   0.62203   1.000
    N54     N    0.45760   0.87698   0.39000   1.000
    N55     N    0.35076   0.88725   0.37833   1.000
loop_
    _geom_bond_atom_site_label_1
    _geom_bond_atom_site_label_2
    _geom_bond_distance
    _geom_bond_site_symmetry_2
    _ccdc_geom_bond_type
    Cu2    N41       2.00231      .   S
    Cu2    N46       2.00317      .   S
    Br33   Cu1       2.51033  1_554   S
    Br34   Cu1       2.50679  1_554   S
    N40    N41       1.39106  1_455   S
    N40    C9        1.34049      .   S
    N40    Cu7       2.00624  1_554   S
    N47    N46       1.39161      .   S
    N47    C14       1.34026      .   S
    N47    Cu0       2.00466  1_554   S
    N41    C8        1.34002      .   S
    N46    C15       1.34079      .   S
    C9     C25       1.41864      .   S
    C14    C30       1.41854      .   S
    C8     C24       1.41914      .   S
    C15    C31       1.41861      .   S
    C25    C24       1.40588  1_455   S
    C25    C19       1.41871      .   S
    C30    C31       1.40625      .   S
    C30    C22       1.41855      .   S
    C24    C18       1.41848      .   S
    C31    C23       1.41814      .   S
    C19    N50       1.34031      .   S
    C22    N55       1.34071      .   S
    C18    N51       1.34039      .   S
    C23    N54       1.34019      .   S
    N50    N51       1.39102  1_455   S
    N50    Cu4       2.00575  1_545   S
    N55    N54       1.39140      .   S
    N55    Cu4       2.00293      .   S
    N51    Cu5       2.00338      .   S
    N54    Cu6       2.00549      .   S
    Br36   Cu6       2.50869  1_545   S
    Br38   Cu3       2.50667      .   S
    Cu4    Br37      2.50571      .   S
    Cu5    N52       2.00444      .   S
    Cu6    Br39      2.50697  1_565   S
    Cu6    N49       2.00659      .   S
    Cu3    N53       2.00492  1_565   S
    Cu3    N48       2.00328      .   S
    N52    N53       1.39153      .   S
    N52    C21       1.34082      .   S
    N49    N48       1.39125      .   S
    N49    C16       1.34054      .   S
    N53    C20       1.34018      .   S
    N48    C17       1.34154      .   S
    C21    C29       1.41868      .   S
    C16    C26       1.41825      .   S
    C20    C28       1.41854      .   S
    C17    C27       1.41862      .   S
    C29    C28       1.40619      .   S
    C29    C13       1.41855      .   S
    C26    C27       1.40644      .   S
    C26    C10       1.41878      .   S
    C28    C12       1.41860      .   S
    C27    C11       1.41864      .   S
    C13    N44       1.34026      .   S
    C10    N43       1.33962      .   S
    C12    N45       1.34075      .   S
    C11    N42       1.34044      .   S
    N44    N45       1.39164      .   S
    N44    Cu1       2.00506      .   S
    N43    N42       1.39223      .   S
    N43    Cu1       2.00558      .   S
    N45    Cu7       2.00343      .   S
    N42    Cu0       2.00482      .   S
    Br32   Cu7       2.50514      .   S
    Br35   Cu0       2.50643      .   S
