# CIF file generated by openbabel 2.4.90, see http://openbabel.sf.net
data_I
_chemical_name_common ''
_cell_length_a 12.811
_cell_length_b 14.28
_cell_length_c 14.19
_cell_angle_alpha 78.507
_cell_angle_beta 63.467
_cell_angle_gamma 63.527
_space_group_name_H-M_alt 'P 1'
_space_group_name_Hall 'P 1'
loop_
    _symmetry_equiv_pos_as_xyz
    x,y,z
loop_
    _atom_site_label
    _atom_site_type_symbol
    _atom_site_fract_x
    _atom_site_fract_y
    _atom_site_fract_z
    _atom_site_occupancy
    Zr0     Zr   0.18181   0.46218   0.99905   1.000
    Zr1     Zr   0.64576   0.53558   0.99972   1.000
    Zr2     Zr   0.43048   0.50046   0.96329   1.000
    Zr3     Zr   0.89433   0.50032   0.03792   1.000
    Zr4     Zr   0.64580   0.99874   0.53687   1.000
    Zr5     Zr   0.18192   0.99854   0.46233   1.000
    Zr6     Zr   0.89463   0.03709   0.50030   1.000
    Zr7     Zr   0.43034   0.96368   0.50070   1.000
    Zr8     Zr   0.92078   0.33001   0.19170   1.000
    Zr9     Zr   0.15632   0.30684   0.16873   1.000
    Zr10    Zr   0.43981   0.67194   0.81058   1.000
    Zr11    Zr   0.63476   0.69021   0.82975   1.000
    Zr12    Zr   0.36255   0.30892   0.82793   1.000
    Zr13    Zr   0.57429   0.33173   0.80743   1.000
    Zr14    Zr   0.50171   0.68929   0.17048   1.000
    Zr15    Zr   0.71354   0.67032   0.19233   1.000
    Zr16    Zr   0.43963   0.81074   0.67233   1.000
    Zr17    Zr   0.63475   0.82887   0.69134   1.000
    Zr18    Zr   0.92119   0.19093   0.32969   1.000
    Zr19    Zr   0.15670   0.16776   0.30673   1.000
    Zr20    Zr   0.50184   0.16936   0.69053   1.000
    Zr21    Zr   0.71364   0.19203   0.67012   1.000
    Zr22    Zr   0.36258   0.82757   0.30918   1.000
    Zr23    Zr   0.57427   0.80814   0.33150   1.000
    Zr24    Zr   0.97889   0.25452   0.25482   1.000
    Zr25    Zr   0.09860   0.24328   0.24366   1.000
    Zr26    Zr   0.48714   0.74609   0.74640   1.000
    Zr27    Zr   0.58738   0.75477   0.75554   1.000
    Zr28    Zr   0.48400   0.24500   0.75395   1.000
    Zr29    Zr   0.59219   0.25599   0.74409   1.000
    Zr30    Zr   0.48394   0.75345   0.24555   1.000
    Zr31    Zr   0.59212   0.74417   0.25625   1.000
    Zr32    Zr   0.03790   0.58679   0.91303   1.000
    Zr33    Zr   0.53899   0.41166   0.08631   1.000
    Zr34    Zr   0.20112   0.58442   0.08910   1.000
    Zr35    Zr   0.87546   0.41221   0.91327   1.000
    Zr36    Zr   0.53919   0.08579   0.41210   1.000
    Zr37    Zr   0.03712   0.91373   0.58820   1.000
    Zr38    Zr   0.87540   0.91324   0.41214   1.000
    Zr39    Zr   0.20094   0.08845   0.58540   1.000
    Zr40    Zr   0.09804   0.37661   0.11035   1.000
    Zr41    Zr   0.97868   0.38887   0.12260   1.000
    Zr42    Zr   0.58660   0.62149   0.88890   1.000
    Zr43    Zr   0.48858   0.61190   0.87880   1.000
    Zr44    Zr   0.45760   0.39023   0.87644   1.000
    Zr45    Zr   0.35075   0.37826   0.88728   1.000
    Zr46    Zr   0.72537   0.61088   0.12295   1.000
    Zr47    Zr   0.61847   0.62089   0.11154   1.000
    Zr48    Zr   0.58649   0.88846   0.62250   1.000
    Zr49    Zr   0.48829   0.87901   0.61269   1.000
    Zr50    Zr   0.09852   0.10927   0.37627   1.000
    Zr51    Zr   0.97924   0.12148   0.38837   1.000
    Zr52    Zr   0.72552   0.12220   0.61128   1.000
    Zr53    Zr   0.61862   0.11037   0.62203   1.000
    Zr54    Zr   0.45760   0.87698   0.39000   1.000
    Zr55    Zr   0.35076   0.88725   0.37833   1.000
    O56     O    0.93651   0.44460   0.08026   1.000
    O57     O    0.80985   0.55560   0.08044   1.000
    O58     O    0.48473   0.45606   0.02480   1.000
    O59     O    0.31580   0.54244   0.02619   1.000
    O60     O    0.03836   0.38274   0.11648   1.000
    O61     O    0.12718   0.34172   0.13954   1.000
    O62     O    0.13993   0.41939   0.05470   1.000
    O63     O    0.67192   0.61588   0.11725   1.000
    O64     O    0.56009   0.65509   0.14101   1.000
    O65     O    0.63211   0.57823   0.05563   1.000
    O66     O    0.94973   0.35944   0.15715   1.000
    O67     O    0.71945   0.64060   0.15764   1.000
    O68     O    0.12746   0.27506   0.20619   1.000
    O69     O    0.49283   0.72137   0.20801   1.000
    O70     O    0.94984   0.29227   0.22326   1.000
    O71     O    0.65283   0.70725   0.22429   1.000
    O72     O    0.03875   0.24890   0.24924   1.000
    O73     O    0.12765   0.20552   0.27520   1.000
    O74     O    0.53803   0.74881   0.25090   1.000
    O75     O    0.42326   0.79051   0.27737   1.000
    O76     O    0.95004   0.22273   0.29225   1.000
    O77     O    0.58319   0.77616   0.29387   1.000
    O78     O    0.12761   0.13851   0.34150   1.000
    O79     O    0.35667   0.85741   0.34375   1.000
    O80     O    0.95021   0.15621   0.35903   1.000
    O81     O    0.51593   0.84256   0.36075   1.000
    O82     O    0.03888   0.11537   0.38232   1.000
    O83     O    0.14022   0.05390   0.41930   1.000
    O84     O    0.40418   0.88212   0.38417   1.000
    O85     O    0.26634   0.94289   0.42033   1.000
    O86     O    0.93694   0.07929   0.44434   1.000
    O87     O    0.44397   0.92033   0.44535   1.000
    O88     O    0.48477   0.02474   0.45640   1.000
    O89     O    0.76060   0.95599   0.47451   1.000
    O90     O    0.10952   0.95614   0.52527   1.000
    O91     O    0.81008   0.07964   0.55579   1.000
    O92     O    0.31564   0.02606   0.54305   1.000
    O93     O    0.45932   0.92135   0.55670   1.000
    O94     O    0.63221   0.05456   0.57945   1.000
    O95     O    0.61615   0.94360   0.57969   1.000
    O96     O    0.67207   0.11628   0.61665   1.000
    O97     O    0.71958   0.15711   0.64070   1.000
    O98     O    0.53739   0.88374   0.61760   1.000
    O99     O    0.46396   0.84488   0.64251   1.000
    O100    O    0.56023   0.13987   0.65628   1.000
    O101    O    0.61062   0.85867   0.65692   1.000
    O102    O    0.65292   0.22401   0.70710   1.000
    O103    O    0.46339   0.77841   0.70937   1.000
    O104    O    0.49292   0.20718   0.72224   1.000
    O105    O    0.61106   0.79182   0.72344   1.000
    O106    O    0.53810   0.25049   0.74902   1.000
    O107    O    0.58324   0.29386   0.77576   1.000
    O108    O    0.53726   0.75043   0.75097   1.000
    O109    O    0.46348   0.70902   0.77849   1.000
    O110    O    0.42328   0.27696   0.79094   1.000
    O111    O    0.61107   0.72249   0.79265   1.000
    O112    O    0.51595   0.36098   0.84193   1.000
    O113    O    0.46420   0.64192   0.84469   1.000
    O114    O    0.35665   0.34359   0.85761   1.000
    O115    O    0.61068   0.65585   0.85933   1.000
    O116    O    0.40417   0.38424   0.88186   1.000
    O117    O    0.44404   0.44534   0.91987   1.000
    O118    O    0.53759   0.61669   0.88385   1.000
    O119    O    0.45953   0.55618   0.92105   1.000
    O120    O    0.26628   0.42022   0.94316   1.000
    O121    O    0.61618   0.57854   0.94431   1.000
    O122    O    0.10986   0.52448   0.95604   1.000
    O123    O    0.76061   0.47389   0.95650   1.000
    N124    N    0.76246   0.26675   0.26664   1.000
    O125    O    0.80944   0.30212   0.23217   1.000
    O126    O    0.80972   0.23173   0.30179   1.000
    N127    N    0.31538   0.23066   0.23141   1.000
    O128    O    0.26826   0.19542   0.26604   1.000
    O129    O    0.26802   0.26577   0.19636   1.000
    N130    N    0.28976   0.73886   0.73852   1.000
    O131    O    0.33846   0.70241   0.77217   1.000
    O132    O    0.33832   0.77260   0.70235   1.000
    N133    N    0.79550   0.26837   0.73430   1.000
    O134    O    0.78372   0.23302   0.69893   1.000
    O135    O    0.71323   0.30387   0.76807   1.000
    N136    N    0.78411   0.76263   0.76412   1.000
    O137    O    0.73568   0.79882   0.73016   1.000
    O138    O    0.73563   0.72878   0.80017   1.000
    N139    N    0.28068   0.23324   0.76309   1.000
    O140    O    0.36290   0.19761   0.72945   1.000
    O141    O    0.29246   0.26831   0.79873   1.000
    N142    N    0.28059   0.76166   0.23453   1.000
    O143    O    0.36279   0.72789   0.19894   1.000
    O144    O    0.29245   0.79772   0.26910   1.000
    N145    N    0.79546   0.73549   0.26774   1.000
    O146    O    0.78364   0.69977   0.23279   1.000
    O147    O    0.71319   0.76922   0.30335   1.000
loop_
    _geom_bond_atom_site_label_1
    _geom_bond_atom_site_label_2
    _geom_bond_distance
    _geom_bond_site_symmetry_2
    _ccdc_geom_bond_type
    Zr3    O56       1.00116      .   S
    Zr41   O56       1.00116      .   S
    Zr3    O57       1.00159      .   S
    Zr46   O57       1.00159      .   S
    Zr33   O58       1.25517      .   S
    Zr2    O58       1.25517  1_556   S
    Zr34   O59       1.25340      .   S
    Zr2    O59       1.25340  1_556   S
    Zr40   O60       0.69553      .   S
    Zr41   O60       0.69553  1_655   S
    Zr40   O61       0.67025      .   S
    Zr9    O61       0.67025      .   S
    Zr40   O62       1.00312      .   S
    Zr0    O62       1.00312  1_556   S
    Zr47   O63       0.69580      .   S
    Zr46   O63       0.69580      .   S
    Zr47   O64       0.67013      .   S
    Zr14   O64       0.67013      .   S
    Zr47   O65       1.00233      .   S
    Zr1    O65       1.00233  1_556   S
    Zr41   O66       0.67001      .   S
    Zr8    O66       0.67001      .   S
    Zr46   O67       0.67039      .   S
    Zr15   O67       0.67039      .   S
    Zr9    O68       0.70932      .   S
    Zr25   O68       0.70932      .   S
    Zr14   O69       0.70927      .   S
    Zr30   O69       0.70927      .   S
    Zr8    O70       0.70957      .   S
    Zr24   O70       0.70957      .   S
    Zr15   O71       0.70930      .   S
    Zr31   O71       0.70930      .   S
    Zr25   O72       0.70294      .   S
    Zr24   O72       0.70294  1_655   S
    Zr25   O73       0.70935      .   S
    Zr19   O73       0.70935      .   S
    Zr30   O74       0.70312      .   S
    Zr31   O74       0.70312      .   S
    Zr30   O75       0.70928      .   S
    Zr22   O75       0.70928      .   S
    Zr24   O76       0.70924      .   S
    Zr18   O76       0.70924      .   S
    Zr31   O77       0.70907      .   S
    Zr23   O77       0.70907      .   S
    Zr19   O78       0.67016      .   S
    Zr50   O78       0.67016      .   S
    Zr22   O79       0.67036      .   S
    Zr55   O79       0.67036      .   S
    Zr18   O80       0.67019      .   S
    Zr51   O80       0.67019      .   S
    Zr23   O81       0.67010      .   S
    Zr54   O81       0.67010      .   S
    Zr50   O82       0.69551      .   S
    Zr51   O82       0.69551  1_655   S
    Zr50   O83       1.00288      .   S
    Zr5    O83       1.00288  1_565   S
    Zr55   O84       0.69570      .   S
    Zr54   O84       0.69570      .   S
    Zr55   O85       1.00146      .   S
    Zr5    O85       1.00146      .   S
    Zr51   O86       1.00169      .   S
    Zr6    O86       1.00169      .   S
    Zr54   O87       1.00275      .   S
    Zr7    O87       1.00275      .   S
    Zr36   O88       1.25434      .   S
    Zr7    O88       1.25434  1_565   S
    Zr38   O89       1.25333      .   S
    Zr4    O89       1.25333      .   S
    Zr5    O90       1.25285      .   S
    Zr37   O90       1.25285      .   S
    Zr6    O91       1.00222      .   S
    Zr52   O91       1.00222      .   S
    Zr7    O92       1.25349  1_565   S
    Zr39   O92       1.25349      .   S
    Zr7    O93       1.00330      .   S
    Zr49   O93       1.00330      .   S
    Zr4    O94       1.00246  1_565   S
    Zr53   O94       1.00246      .   S
    Zr4    O95       1.00164      .   S
    Zr48   O95       1.00164      .   S
    Zr52   O96       0.69576      .   S
    Zr53   O96       0.69576      .   S
    Zr52   O97       0.67041      .   S
    Zr21   O97       0.67041      .   S
    Zr49   O98       0.69562      .   S
    Zr48   O98       0.69562      .   S
    Zr49   O99       0.67027      .   S
    Zr16   O99       0.67027      .   S
    Zr53   O100      0.67009      .   S
    Zr20   O100      0.67009      .   S
    Zr48   O101      0.67077      .   S
    Zr17   O101      0.67077      .   S
    Zr21   O102      0.70934      .   S
    Zr29   O102      0.70934      .   S
    Zr16   O103      0.70912      .   S
    Zr26   O103      0.70912      .   S
    Zr20   O104      0.70927      .   S
    Zr28   O104      0.70927      .   S
    Zr17   O105      0.70931      .   S
    Zr27   O105      0.70931      .   S
    Zr29   O106      0.70309      .   S
    Zr28   O106      0.70309      .   S
    Zr29   O107      0.70928      .   S
    Zr13   O107      0.70928      .   S
    Zr26   O108      0.70322      .   S
    Zr27   O108      0.70322      .   S
    Zr26   O109      0.70939      .   S
    Zr10   O109      0.70939      .   S
    Zr28   O110      0.70930      .   S
    Zr12   O110      0.70930      .   S
    Zr27   O111      0.70932      .   S
    Zr11   O111      0.70932      .   S
    Zr13   O112      0.67013      .   S
    Zr44   O112      0.67013      .   S
    Zr10   O113      0.66981      .   S
    Zr43   O113      0.66981      .   S
    Zr12   O114      0.67037      .   S
    Zr45   O114      0.67037      .   S
    Zr11   O115      0.67022      .   S
    Zr42   O115      0.67022      .   S
    Zr44   O116      0.69582      .   S
    Zr45   O116      0.69582      .   S
    Zr44   O117      1.00253      .   S
    Zr2    O117      1.00253      .   S
    Zr43   O118      0.69612      .   S
    Zr42   O118      0.69612      .   S
    Zr43   O119      1.00279      .   S
    Zr2    O119      1.00279      .   S
    Zr45   O120      1.00172      .   S
    Zr0    O120      1.00172      .   S
    Zr42   O121      1.00241      .   S
    Zr1    O121      1.00241      .   S
    Zr32   O122      1.25257      .   S
    Zr0    O122      1.25257      .   S
    Zr35   O123      1.25321      .   S
    Zr1    O123      1.25321      .   S
    N124   O125      0.87530      .   S
    Zr8    O125      1.48546      .   S
    N124   O126      0.87514      .   S
    Zr18   O126      1.48553      .   S
    N127   O128      0.87538      .   S
    Zr19   O128      1.48562      .   S
    N127   O129      0.87515      .   S
    Zr9    O129      1.48552      .   S
    N130   O131      0.87517      .   S
    Zr10   O131      1.48537      .   S
    N130   O132      0.87513      .   S
    Zr16   O132      1.48543      .   S
    N133   O134      0.87527      .   S
    Zr21   O134      1.48575      .   S
    N133   O135      0.87558      .   S
    Zr13   O135      1.48572      .   S
    N136   O137      0.87535      .   S
    Zr17   O137      1.48570      .   S
    N136   O138      0.87550      .   S
    Zr11   O138      1.48575      .   S
    N139   O140      0.87519      .   S
    Zr20   O140      1.48535      .   S
    N139   O141      0.87513      .   S
    Zr12   O141      1.48554      .   S
    N142   O143      0.87510      .   S
    Zr14   O143      1.48531      .   S
    N142   O144      0.87525      .   S
    Zr22   O144      1.48561      .   S
    N145   O146      0.87513      .   S
    Zr15   O146      1.48551      .   S
    N145   O147      0.87556      .   S
    Zr23   O147      1.48578      .   S
