# CIF file generated by openbabel 2.4.90, see http://openbabel.sf.net
data_I
_chemical_name_common ''
_cell_length_a 12.811
_cell_length_b 14.28
_cell_length_c 14.19
_cell_angle_alpha 78.507
_cell_angle_beta 63.467
_cell_angle_gamma 63.527
_space_group_name_H-M_alt 'P 1'
_space_group_name_Hall 'P 1'
loop_
    _symmetry_equiv_pos_as_xyz
    x,y,z
loop_
    _atom_site_label
    _atom_site_type_symbol
    _atom_site_fract_x
    _atom_site_fract_y
    _atom_site_fract_z
    _atom_site_occupancy
    Zr0     Zr   0.18181   0.46218   0.99905   1.000
    Zr1     Zr   0.64576   0.53558   0.99972   1.000
    Zr2     Zr   0.43048   0.50046   0.96329   1.000
    Zr3     Zr   0.89433   0.50032   0.03792   1.000
    Zr4     Zr   0.64580   0.99874   0.53687   1.000
    Zr5     Zr   0.18192   0.99854   0.46233   1.000
    Zr6     Zr   0.89463   0.03709   0.50030   1.000
    Zr7     Zr   0.43034   0.96368   0.50070   1.000
    Zr8     Zr   0.03790   0.58679   0.91303   1.000
    Zr9     Zr   0.53899   0.41166   0.08631   1.000
    Zr10    Zr   0.20112   0.58442   0.08910   1.000
    Zr11    Zr   0.87546   0.41221   0.91327   1.000
    Zr12    Zr   0.53919   0.08579   0.41210   1.000
    Zr13    Zr   0.03712   0.91373   0.58820   1.000
    Zr14    Zr   0.87540   0.91324   0.41214   1.000
    Zr15    Zr   0.20094   0.08845   0.58540   1.000
    O16     O    0.48473   0.45606   0.02480   1.000
    O17     O    0.31580   0.54244   0.02619   1.000
    O18     O    0.48477   0.02474   0.45640   1.000
    O19     O    0.76060   0.95599   0.47451   1.000
    O20     O    0.10952   0.95614   0.52527   1.000
    O21     O    0.31564   0.02606   0.54305   1.000
    O22     O    0.10986   0.52448   0.95604   1.000
    O23     O    0.76061   0.47389   0.95650   1.000
    N24     N    0.76246   0.26675   0.26664   1.000
    N25     N    0.31538   0.23066   0.23141   1.000
    N26     N    0.28976   0.73886   0.73852   1.000
    N27     N    0.79550   0.26837   0.73430   1.000
    N28     N    0.78411   0.76263   0.76412   1.000
    N29     N    0.28068   0.23324   0.76309   1.000
    N30     N    0.28059   0.76166   0.23453   1.000
    N31     N    0.79546   0.73549   0.26774   1.000
    C32     C    0.53804   0.74889   0.25081   1.000
    O33     O    0.67394   0.65225   0.16562   1.000
    O34     O    0.41525   0.77331   0.25995   1.000
    O35     O    0.49100   0.83461   0.34808   1.000
    O36     O    0.40219   0.84589   0.33557   1.000
    O37     O    0.62562   0.75905   0.27708   1.000
    O38     O    0.58508   0.66356   0.15322   1.000
    O39     O    0.45041   0.73839   0.22488   1.000
    O40     O    0.66084   0.72433   0.24180   1.000
    C41     C    0.03870   0.24896   0.24929   1.000
    O42     O    0.92407   0.27554   0.24073   1.000
    O43     O    0.92421   0.24034   0.27554   1.000
    O44     O    0.98782   0.16412   0.34681   1.000
    O45     O    0.15336   0.25737   0.22283   1.000
    O46     O    0.08931   0.33418   0.15200   1.000
    O47     O    0.98760   0.34678   0.16478   1.000
    O48     O    0.15348   0.22219   0.25767   1.000
    O49     O    0.08946   0.15143   0.33430   1.000
    C50     C    0.53734   0.75035   0.75088   1.000
    O51     O    0.63649   0.73956   0.77553   1.000
    O52     O    0.43783   0.76147   0.72661   1.000
    O53     O    0.57674   0.84697   0.66528   1.000
    O54     O    0.49833   0.83585   0.65379   1.000
    O55     O    0.43790   0.72638   0.76153   1.000
    O56     O    0.49844   0.65326   0.83596   1.000
    O57     O    0.63651   0.77458   0.74052   1.000
    O58     O    0.57676   0.66444   0.84760   1.000
    C59     C    0.53810   0.25041   0.74911   1.000
    O60     O    0.62567   0.27714   0.75859   1.000
    O61     O    0.67409   0.16503   0.65245   1.000
    O62     O    0.66091   0.24171   0.72402   1.000
    O63     O    0.45050   0.22401   0.73928   1.000
    O64     O    0.41528   0.25936   0.77392   1.000
    O65     O    0.58516   0.15248   0.66428   1.000
    O66     O    0.49107   0.34787   0.83449   1.000
    O67     O    0.40219   0.33531   0.84614   1.000
loop_
    _geom_bond_atom_site_label_1
    _geom_bond_atom_site_label_2
    _geom_bond_distance
    _geom_bond_site_symmetry_2
    _ccdc_geom_bond_type
    Zr9    O16       1.25517      .   S
    Zr2    O16       1.25517  1_556   S
    Zr10   O17       1.25340      .   S
    Zr2    O17       1.25340  1_556   S
    Zr12   O18       1.25434      .   S
    Zr7    O18       1.25434  1_565   S
    Zr14   O19       1.25333      .   S
    Zr4    O19       1.25333      .   S
    Zr5    O20       1.25285      .   S
    Zr13   O20       1.25285      .   S
    Zr7    O21       1.25349  1_565   S
    Zr15   O21       1.25349      .   S
    Zr8    O22       1.25257      .   S
    Zr0    O22       1.25257      .   S
    Zr11   O23       1.25321      .   S
    Zr1    O23       1.25321      .   S
    C32    O33       1.74341      .   S
    Zr3    O33       2.73797      .   S
    C32    O34       1.39989      .   S
    N30    O34       1.99244      .   S
    C32    O35       1.74333      .   S
    Zr7    O35       2.73884      .   S
    C32    O36       1.74316      .   S
    Zr5    O36       2.73739      .   S
    C32    O37       1.39972      .   S
    N31    O37       1.99312      .   S
    C32    O38       1.74293      .   S
    Zr1    O38       2.73781  1_556   S
    C32    O39       1.39970      .   S
    N30    O39       1.99253      .   S
    C32    O40       1.40022      .   S
    N31    O40       1.99268      .   S
    C41    O42       1.39978  1_455   S
    N24    O42       1.99258      .   S
    C41    O43       1.39988  1_455   S
    N24    O43       1.99248      .   S
    C41    O44       1.74286  1_455   S
    Zr6    O44       2.73727      .   S
    C41    O45       1.39988      .   S
    N25    O45       1.99252      .   S
    C41    O46       1.74403      .   S
    Zr0    O46       2.74011  1_556   S
    C41    O47       1.74259  1_455   S
    Zr3    O47       2.73656      .   S
    C41    O48       1.39976      .   S
    N25    O48       1.99265      .   S
    C41    O49       1.74395      .   S
    Zr5    O49       2.73988  1_565   S
    C50    O51       1.40006      .   S
    N28    O51       1.99311      .   S
    C50    O52       1.39962      .   S
    N26    O52       1.99228      .   S
    C50    O53       1.74337      .   S
    Zr4    O53       2.73774      .   S
    C50    O54       1.74343      .   S
    Zr7    O54       2.73910      .   S
    C50    O55       1.39968      .   S
    N26    O55       1.99225      .   S
    C50    O56       1.74342      .   S
    Zr2    O56       2.73880      .   S
    C50    O57       1.40012      .   S
    N28    O57       1.99303      .   S
    C50    O58       1.74335      .   S
    Zr1    O58       2.73839      .   S
    C59    O60       1.39974      .   S
    N27    O60       1.99313      .   S
    C59    O61       1.74376      .   S
    Zr6    O61       2.73890      .   S
    C59    O62       1.40020      .   S
    N27    O62       1.99275      .   S
    C59    O63       1.39961      .   S
    N29    O63       1.99250      .   S
    C59    O64       1.39992      .   S
    N29    O64       1.99228      .   S
    C59    O65       1.74320      .   S
    Zr4    O65       2.73831  1_565   S
    C59    O66       1.74359      .   S
    Zr2    O66       2.73900      .   S
    C59    O67       1.74317      .   S
    Zr0    O67       2.73757      .   S
