# CIF file generated by openbabel 2.4.90, see http://openbabel.sf.net
data_I
_chemical_name_common ''
_cell_length_a 12.16
_cell_length_b 12.162
_cell_length_c 12.711
_cell_angle_alpha 102.47
_cell_angle_beta 102.441
_cell_angle_gamma 103.409
_space_group_name_H-M_alt 'P 1'
_space_group_name_Hall 'P 1'
loop_
    _symmetry_equiv_pos_as_xyz
    x,y,z
loop_
    _atom_site_label
    _atom_site_type_symbol
    _atom_site_fract_x
    _atom_site_fract_y
    _atom_site_fract_z
    _atom_site_occupancy
    Ba0     Ba   0.20443   0.79546   0.24971   1.000
    Zn1     Zn   0.82283   0.42676   0.04868   1.000
    Zn2     Zn   0.57342   0.17775   0.45262   1.000
    Zn3     Zn   0.17721   0.57328   0.95127   1.000
    Zn4     Zn   0.42662   0.82230   0.54733   1.000
    H5      H    0.04733   0.09511   0.99001   1.000
    H6      H    0.19814   0.02436   0.10029   1.000
    H7      H    0.28994   0.33969   0.37253   1.000
    H8      H    0.13404   0.40619   0.26602   1.000
    H9      H    0.60435   0.17383   0.16575   1.000
    H10     H    0.51949   0.00000   0.81140   1.000
    H11     H    0.90224   0.50466   0.88978   1.000
    H12     H    0.76307   0.47513   0.85490   1.000
    H13     H    0.90468   0.95331   0.51028   1.000
    H14     H    0.97565   0.80246   0.40018   1.000
    H15     H    0.66052   0.71036   0.12770   1.000
    H16     H    0.59395   0.86643   0.23394   1.000
    H17     H    0.82588   0.39552   0.33460   1.000
    H18     H    0.99051   0.48117   0.68874   1.000
    H19     H    0.49570   0.09765   0.61097   1.000
    H20     H    0.52482   0.23679   0.64632   1.000
    H21     H    0.95271   0.90493   0.00000   1.000
    H22     H    0.80190   0.97568   0.89965   1.000
    H23     H    0.71010   0.66036   0.62741   1.000
    H24     H    0.86599   0.59385   0.73392   1.000
    H25     H    0.39568   0.82621   0.83419   1.000
    H26     H    0.48054   0.99008   0.18850   1.000
    H27     H    0.09779   0.49539   0.11016   1.000
    H28     H    0.23697   0.52492   0.14505   1.000
    H29     H    0.09536   0.04674   0.48966   1.000
    H30     H    0.02438   0.19758   0.59976   1.000
    H31     H    0.33951   0.28969   0.87221   1.000
    Ba32    Ba   0.79560   0.20458   0.75023   1.000
    H33     H    0.40608   0.13362   0.76600   1.000
    H34     H    0.17416   0.60452   0.66534   1.000
    H35     H    0.00000   0.51887   0.31120   1.000
    H36     H    0.50434   0.90240   0.38897   1.000
    H37     H    0.47522   0.76326   0.35363   1.000
    C38     C    0.98327   0.28942   0.05464   1.000
    C39     C    0.08027   0.25444   0.12036   1.000
    C40     C    0.09994   0.14735   0.07436   1.000
    C41     C    0.18424   0.10819   0.13606   1.000
    C42     C    0.25273   0.17713   0.24420   1.000
    C43     C    0.23584   0.28592   0.28905   1.000
    C44     C    0.14924   0.32369   0.22842   1.000
    C45     C    0.34329   0.13388   0.31030   1.000
    C46     C    0.64237   0.21296   0.97154   1.000
    C47     C    0.56852   0.10355   0.98685   1.000
    C48     C    0.55835   0.09749   0.09358   1.000
    C49     C    0.50982   0.00000   0.89362   1.000
    C50     C    0.71033   0.01721   0.44541   1.000
    C51     C    0.74547   0.92023   0.37978   1.000
    C52     C    0.85255   0.90064   0.42591   1.000
    C53     C    0.89182   0.81630   0.36434   1.000
    C54     C    0.82296   0.74768   0.25622   1.000
    C55     C    0.71421   0.76453   0.21121   1.000
    C56     C    0.67638   0.85122   0.27168   1.000
    C57     C    0.86618   0.65689   0.19036   1.000
    C58     C    0.78717   0.35814   0.52912   1.000
    C59     C    0.89656   0.43173   0.51345   1.000
    C60     C    0.90235   0.44160   0.40661   1.000
    C61     C    0.99508   0.49057   0.60645   1.000
    C62     C    0.01676   0.71062   0.94530   1.000
    C63     C    0.91977   0.74560   0.87958   1.000
    C64     C    0.90010   0.85269   0.92558   1.000
    C65     C    0.81580   0.89186   0.86388   1.000
    C66     C    0.74730   0.82291   0.75574   1.000
    C67     C    0.76420   0.71413   0.71089   1.000
    C68     C    0.85079   0.67635   0.77152   1.000
    C69     C    0.65675   0.86617   0.68964   1.000
    C70     C    0.35766   0.78708   0.02840   1.000
    C71     C    0.43150   0.89649   0.01309   1.000
    C72     C    0.44167   0.90255   0.90636   1.000
    C73     C    0.49021   0.99483   0.10632   1.000
    C74     C    0.28970   0.98283   0.55453   1.000
    C75     C    0.25457   0.07982   0.62015   1.000
    C76     C    0.14748   0.09940   0.57403   1.000
    C77     C    0.10821   0.18375   0.63559   1.000
    C78     C    0.17707   0.25237   0.74372   1.000
    C79     C    0.28582   0.23551   0.78873   1.000
    C80     C    0.32365   0.14883   0.72825   1.000
    C81     C    0.13385   0.34315   0.80958   1.000
    C82     C    0.21287   0.64190   0.47082   1.000
    C83     C    0.10348   0.56832   0.48649   1.000
    C84     C    0.09768   0.55844   0.59333   1.000
    C85     C    0.00000   0.50947   0.39349   1.000
    O86     O    0.91011   0.21829   0.96837   1.000
    O87     O    0.97974   0.39792   0.09404   1.000
    O88     O    0.32944   0.02524   0.29348   1.000
    O89     O    0.43282   0.21517   0.38157   1.000
    O90     O    0.70683   0.29329   0.06240   1.000
    O91     O    0.63931   0.22196   0.87381   1.000
    O92     O    0.82629   0.44585   0.88854   1.000
    O93     O    0.78132   0.09037   0.53175   1.000
    O94     O    0.60189   0.02076   0.40586   1.000
    O95     O    0.97480   0.67083   0.20685   1.000
    O96     O    0.78485   0.56702   0.11961   1.000
    O97     O    0.70656   0.29378   0.43844   1.000
    O98     O    0.77843   0.36115   0.62693   1.000
    O99     O    0.55441   0.17385   0.61259   1.000
    O100    O    0.08993   0.78175   0.03157   1.000
    O101    O    0.02030   0.60212   0.90590   1.000
    O102    O    0.67060   0.97480   0.70647   1.000
    O103    O    0.56721   0.78488   0.61838   1.000
    O104    O    0.29319   0.70675   0.93754   1.000
    O105    O    0.36072   0.77808   0.12613   1.000
    O106    O    0.17375   0.55419   0.11141   1.000
    O107    O    0.21872   0.90967   0.46819   1.000
    O108    O    0.39815   0.97929   0.59408   1.000
    O109    O    0.02523   0.32921   0.79308   1.000
    O110    O    0.21518   0.43301   0.88034   1.000
    O111    O    0.29347   0.70628   0.56150   1.000
    O112    O    0.22161   0.63889   0.37301   1.000
    O113    O    0.44563   0.82620   0.38736   1.000
loop_
    _geom_bond_atom_site_label_1
    _geom_bond_atom_site_label_2
    _geom_bond_distance
    _geom_bond_site_symmetry_2
    _ccdc_geom_bond_type
    H21    C64       0.99945  1_554   S
    C71    C70       1.49927      .   S
    C71    C73       1.40423      .   S
    C71    C72       1.40444  1_554   S
    C70    O105      1.26383      .   S
    C70    O104      1.29240  1_554   S
    O100   C62       1.24715  1_554   S
    Zn1    O90       1.95473      .   S
    Zn1    O87       2.00489      .   S
    Zn1    O96       1.95366      .   S
    C38    O87       1.32065      .   S
    C38    C39       1.49389  1_655   S
    C38    O86       1.24714  1_554   S
    O90    C46       1.29240  1_554   S
    C40    C39       1.40409      .   S
    C40    C41       1.39070      .   S
    C40    H5        1.08821  1_554   S
    C48    C73       1.39173  1_545   S
    C48    H9        1.08932      .   S
    C48    C47       1.40443  1_554   S
    H6     C41       1.08969      .   S
    C73    H26       1.08821      .   S
    H27    O106      1.02335      .   S
    O106   H28       0.97556      .   S
    O96    C57       1.29319      .   S
    C39    C44       1.40563      .   S
    H15    C55       1.08949      .   S
    C41    C42       1.40400      .   S
    C57    O95       1.25647      .   S
    C57    C54       1.50186      .   S
    O95    Ba0       2.72332  1_655   S
    C55    C54       1.40300      .   S
    C55    C56       1.39327      .   S
    C44    H8        1.08916      .   S
    C44    C43       1.39335      .   S
    H16    C56       1.08915      .   S
    C42    C43       1.40301      .   S
    C42    C45       1.50212      .   S
    Ba0    O88       2.72466  1_565   S
    C54    C53       1.40396      .   S
    C56    C51       1.40564      .   S
    C43    H7        1.08924      .   S
    O88    C45       1.25654      .   S
    C45    O89       1.29321      .   S
    H35    C85       1.07648      .   S
    H17    C60       1.08936      .   S
    H37    O113      0.97560      .   S
    C53    H14       1.08975      .   S
    C53    C52       1.39071      .   S
    O112   C82       1.26389      .   S
    C51    C52       1.40406      .   S
    C51    C50       1.49401  1_565   S
    O89    Zn2       1.95414      .   S
    O113   H36       1.02352      .   S
    C85    C60       1.34509  1_455   S
    C85    C83       1.43840      .   S
    O94    C50       1.32049      .   S
    O94    Zn2       2.00595      .   S
    C60    C59       1.40406      .   S
    C52    H13       1.08826      .   S
    O97    Zn2       1.95473      .   S
    O97    C58       1.29219      .   S
    C50    O93       1.24706      .   S
    O107   C74       1.24702      .   S
    C82    C83       1.49962      .   S
    C82    O111      1.29220      .   S
    C83    C84       1.40408      .   S
    H29    C76       1.08824      .   S
    C59    C58       1.49963      .   S
    C59    C61       1.40417      .   S
    C58    O98       1.26391      .   S
    Zn4    O111      1.95474      .   S
    Zn4    O108      2.00593      .   S
    Zn4    O103      1.95413      .   S
    C74    O108      1.32052      .   S
    C74    C75       1.49402  1_565   S
    C76    C75       1.40405      .   S
    C76    C77       1.39065      .   S
    C84    C61       1.39186  1_455   S
    C84    H34       1.08935      .   S
    H30    C77       1.08972      .   S
    C61    H18       1.08813      .   S
    H19    O99       1.02349      .   S
    O99    H20       0.97560      .   S
    O103   C69       1.29321      .   S
    C75    C80       1.40559      .   S
    H23    C67       1.08925      .   S
    C77    C78       1.40405      .   S
    C69    O102      1.25654      .   S
    C69    C66       1.50208      .   S
    O102   Ba32      2.72462  1_565   S
    C67    C66       1.40299      .   S
    C67    C68       1.39334      .   S
    C80    H33       1.08917      .   S
    C80    C79       1.39334      .   S
    H24    C68       1.08917      .   S
    C78    C79       1.40300      .   S
    C78    C81       1.50185      .   S
    Ba32   O109      2.72327  1_655   S
    C66    C65       1.40404      .   S
    C68    C63       1.40564      .   S
    C79    H31       1.08922      .   S
    O109   C81       1.25646      .   S
    C81    O110      1.29321      .   S
    H10    C49       1.07657      .   S
    H25    C72       1.08932      .   S
    H12    O92       0.97556      .   S
    C65    H22       1.08968      .   S
    C65    C64       1.39070      .   S
    O91    C46       1.26382      .   S
    C63    C64       1.40407      .   S
    C63    C62       1.49389  1_655   S
    O110   Zn3       1.95363      .   S
    O92    H11       1.02340      .   S
    C49    C72       1.34267  1_545   S
    C49    C47       1.44011      .   S
    O101   C62       1.32065      .   S
    O101   Zn3       2.00490      .   S
    O104   Zn3       1.95476      .   S
    C46    C47       1.49927      .   S
    O86    Ba32      2.77199      .   S
    O91    Ba32      2.73010      .   S
    O92    Ba32      2.97018      .   S
    O92    Zn1       2.10608  1_556   S
    O93    Ba32      2.77238      .   S
    O98    Ba32      2.73100      .   S
    O99    Ba32      2.96661      .   S
    O99    Zn2       2.10461      .   S
    O100   Ba0       2.77197      .   S
    O105   Ba0       2.73007      .   S
    O106   Ba0       2.97014      .   S
    O106   Zn3       2.10606  1_554   S
    O107   Ba0       2.77238      .   S
    O112   Ba0       2.73108      .   S
    O113   Ba0       2.96667      .   S
    O113   Zn4       2.10461      .   S
