# CIF file generated by openbabel 2.4.90, see http://openbabel.sf.net
data_I
_chemical_name_common ''
_cell_length_a 12.16
_cell_length_b 12.162
_cell_length_c 12.711
_cell_angle_alpha 102.47
_cell_angle_beta 102.441
_cell_angle_gamma 103.409
_space_group_name_H-M_alt 'P 1'
_space_group_name_Hall 'P 1'
loop_
    _symmetry_equiv_pos_as_xyz
    x,y,z
loop_
    _atom_site_label
    _atom_site_type_symbol
    _atom_site_fract_x
    _atom_site_fract_y
    _atom_site_fract_z
    _atom_site_occupancy
    Ba0     Ba   0.20443   0.79546   0.24971   1.000
    Zn1     Zn   0.82283   0.42676   0.04868   1.000
    Zn2     Zn   0.57342   0.17775   0.45262   1.000
    Zn3     Zn   0.17721   0.57328   0.95127   1.000
    Zn4     Zn   0.42662   0.82230   0.54733   1.000
    H5      H    0.90224   0.50466   0.88978   1.000
    H6      H    0.76307   0.47513   0.85490   1.000
    H7      H    0.49570   0.09765   0.61097   1.000
    H8      H    0.52482   0.23679   0.64632   1.000
    H9      H    0.09779   0.49539   0.11016   1.000
    H10     H    0.23697   0.52492   0.14505   1.000
    Ba11    Ba   0.79560   0.20458   0.75023   1.000
    H12     H    0.50434   0.90240   0.38897   1.000
    H13     H    0.47522   0.76326   0.35363   1.000
    O14     O    0.82629   0.44585   0.88854   1.000
    O15     O    0.55441   0.17385   0.61259   1.000
    O16     O    0.17375   0.55419   0.11141   1.000
    O17     O    0.44563   0.82620   0.38736   1.000
loop_
    _geom_bond_atom_site_label_1
    _geom_bond_atom_site_label_2
    _geom_bond_distance
    _geom_bond_site_symmetry_2
    _ccdc_geom_bond_type
    H9     O16       1.02335      .   S
    O16    H10       0.97556      .   S
    H13    O17       0.97560      .   S
    O17    H12       1.02352      .   S
    H7     O15       1.02349      .   S
    O15    H8        0.97560      .   S
    H6     O14       0.97556      .   S
    O14    H5        1.02340      .   S
    O14    Ba11      2.97018      .   S
    O14    Zn1       2.10608  1_556   S
    O15    Ba11      2.96661      .   S
    O15    Zn2       2.10461      .   S
    O16    Ba0       2.97014      .   S
    O16    Zn3       2.10606  1_554   S
    O17    Ba0       2.96667      .   S
    O17    Zn4       2.10461      .   S
