# CIF file generated by openbabel 2.4.90, see http://openbabel.sf.net
data_I
_chemical_name_common ''
_cell_length_a 12.16
_cell_length_b 12.162
_cell_length_c 12.711
_cell_angle_alpha 102.47
_cell_angle_beta 102.441
_cell_angle_gamma 103.409
_space_group_name_H-M_alt 'P 1'
_space_group_name_Hall 'P 1'
loop_
    _symmetry_equiv_pos_as_xyz
    x,y,z
loop_
    _atom_site_label
    _atom_site_type_symbol
    _atom_site_fract_x
    _atom_site_fract_y
    _atom_site_fract_z
    _atom_site_occupancy
    N0      N    0.16565   0.21512   0.18273   1.000
    N1      N    0.50001   0.99907   0.99997   1.000
    N2      N    0.78485   0.83476   0.31757   1.000
    N3      N    0.99911   0.50002   0.49997   1.000
    N4      N    0.83439   0.78492   0.81659   1.000
    N5      N    0.21519   0.16528   0.68237   1.000
    Zr6     Zr   0.69538   0.30478   0.75051   1.000
    O7      O    0.51488   0.25529   0.52521   1.000
    O8      O    0.87909   0.26043   0.73876   1.000
    O9      O    0.73956   0.12104   0.76149   1.000
    O10     O    0.74486   0.48530   0.97569   1.000
    Zr11    Zr   0.30466   0.69527   0.24943   1.000
    O12     O    0.48516   0.74476   0.47458   1.000
    O13     O    0.25517   0.51474   0.02426   1.000
    O14     O    0.12095   0.73961   0.26118   1.000
    O15     O    0.26048   0.87900   0.23830   1.000
    O16     O    0.34206   0.77575   0.14125   1.000
    O17     O    0.22374   0.65782   0.35793   1.000
    O18     O    0.14167   0.71590   0.08752   1.000
    O19     O    0.28412   0.85812   0.41152   1.000
    O20     O    0.65798   0.22382   0.85869   1.000
    O21     O    0.71591   0.14192   0.58843   1.000
    O22     O    0.77584   0.34222   0.64201   1.000
    O23     O    0.85837   0.28414   0.91227   1.000
loop_
    _geom_bond_atom_site_label_1
    _geom_bond_atom_site_label_2
    _geom_bond_distance
    _geom_bond_site_symmetry_2
    _ccdc_geom_bond_type
    Zr6    O7        3.05213      .   S
    N0     O7        5.23240      .   S
    Zr6    O8        2.44367      .   S
    N5     O8        4.65335  1_455   S
    Zr6    O9        2.44148      .   S
    N4     O9        4.64823  1_565   S
    Zr6    O10       3.05054      .   S
    N2     O10       5.22875  1_554   S
    Zr11   O12       3.05067      .   S
    N4     O12       5.22861      .   S
    Zr11   O13       3.05057      .   S
    N5     O13       5.22880  1_556   S
    Zr11   O14       2.44367      .   S
    N2     O14       4.65335  1_655   S
    Zr11   O15       2.44188      .   S
    N0     O15       4.64991  1_545   S
    Zr11   O16       1.92356      .   S
    N1     O16       3.93246  1_556   S
    Zr11   O17       1.93021      .   S
    N3     O17       3.94891  1_655   S
    Zr11   O18       2.63120      .   S
    N4     O18       4.86667  1_656   S
    Zr11   O19       2.63037      .   S
    N5     O19       4.86337  1_545   S
    N1     O20       3.94416  1_565   S
    Zr6    O20       1.92707      .   S
    N2     O21       4.86342  1_565   S
    Zr6    O21       2.63040      .   S
    N3     O22       3.93776      .   S
    Zr6    O22       1.92688      .   S
    Zr6    O23       2.62993      .   S
    N0     O23       4.86323  1_454   S
