# CIF file generated by openbabel 2.4.90, see http://openbabel.sf.net
data_I
_chemical_name_common ''
_cell_length_a 12.16
_cell_length_b 12.162
_cell_length_c 12.711
_cell_angle_alpha 102.47
_cell_angle_beta 102.441
_cell_angle_gamma 103.409
_space_group_name_H-M_alt 'P 1'
_space_group_name_Hall 'P 1'
loop_
    _symmetry_equiv_pos_as_xyz
    x,y,z
loop_
    _atom_site_label
    _atom_site_type_symbol
    _atom_site_fract_x
    _atom_site_fract_y
    _atom_site_fract_z
    _atom_site_occupancy
    Zr0     Zr   0.79560   0.20458   0.75023   1.000
    Zr1     Zr   0.20443   0.79546   0.24971   1.000
    Zr2     Zr   0.82283   0.42676   0.04868   1.000
    Zr3     Zr   0.57342   0.17775   0.45262   1.000
    Zr4     Zr   0.17721   0.57328   0.95127   1.000
    Zr5     Zr   0.42662   0.82230   0.54733   1.000
    Zr6     Zr   0.90224   0.50466   0.88978   1.000
    Zr7     Zr   0.76307   0.47513   0.85490   1.000
    Zr8     Zr   0.49570   0.09765   0.61097   1.000
    Zr9     Zr   0.52482   0.23679   0.64632   1.000
    Zr10    Zr   0.09779   0.49539   0.11016   1.000
    Zr11    Zr   0.23697   0.52492   0.14505   1.000
    Zr12    Zr   0.50434   0.90240   0.38897   1.000
    Zr13    Zr   0.47522   0.76326   0.35363   1.000
    Zr14    Zr   0.82629   0.44585   0.88854   1.000
    Zr15    Zr   0.55441   0.17385   0.61259   1.000
    Zr16    Zr   0.17375   0.55419   0.11141   1.000
    Zr17    Zr   0.44563   0.82620   0.38736   1.000
    O18     O    0.13577   0.52479   0.11078   1.000
    O19     O    0.20536   0.53956   0.12823   1.000
    O20     O    0.46042   0.79473   0.37049   1.000
    O21     O    0.47498   0.86430   0.38816   1.000
    O22     O    0.52505   0.13575   0.61178   1.000
    O23     O    0.53962   0.20532   0.62945   1.000
    O24     O    0.79468   0.46049   0.87172   1.000
    O25     O    0.86427   0.47525   0.88916   1.000
    O26     O    0.81095   0.32521   0.81938   1.000
    O27     O    0.82456   0.43630   0.96861   1.000
    O28     O    0.67501   0.18921   0.68141   1.000
    O29     O    0.56391   0.17580   0.53260   1.000
    O30     O    0.18909   0.67483   0.18056   1.000
    O31     O    0.17548   0.56374   0.03134   1.000
    O32     O    0.32503   0.81084   0.31854   1.000
    O33     O    0.43612   0.82425   0.46734   1.000
    N34     N    0.16565   0.21512   0.18273   1.000
    O35     O    0.00925   0.21328   0.02102   1.000
    O36     O    0.03347   0.31373   0.12705   1.000
    O37     O    0.21629   0.06274   0.22716   1.000
    O38     O    0.33438   0.20579   0.29991   1.000
    N39     N    0.50001   0.99907   0.99997   1.000
    O40     O    0.63242   0.17955   0.02775   1.000
    O41     O    0.60874   0.10617   0.90599   1.000
    O42     O    0.36761   0.81954   0.97219   1.000
    O43     O    0.39130   0.89292   0.09394   1.000
    N44     N    0.78485   0.83476   0.31757   1.000
    O45     O    0.93723   0.78396   0.27292   1.000
    O46     O    0.79434   0.66583   0.20086   1.000
    O47     O    0.78665   0.99112   0.47928   1.000
    O48     O    0.68625   0.96701   0.37340   1.000
    N49     N    0.99911   0.50002   0.49997   1.000
    O50     O    0.17958   0.63215   0.52719   1.000
    O51     O    0.10607   0.60860   0.40566   1.000
    O52     O    0.81955   0.36789   0.47275   1.000
    O53     O    0.89306   0.39144   0.59428   1.000
    N54     N    0.83439   0.78492   0.81659   1.000
    O55     O    0.99078   0.78676   0.97861   1.000
    O56     O    0.96657   0.68631   0.87259   1.000
    O57     O    0.78374   0.93730   0.77247   1.000
    O58     O    0.66565   0.79425   0.69972   1.000
    N59     N    0.21519   0.16528   0.68237   1.000
    O60     O    0.21338   0.00892   0.52066   1.000
    O61     O    0.31379   0.03304   0.62654   1.000
    O62     O    0.06280   0.21609   0.72701   1.000
    O63     O    0.20569   0.33421   0.79909   1.000
loop_
    _geom_bond_atom_site_label_1
    _geom_bond_atom_site_label_2
    _geom_bond_distance
    _geom_bond_site_symmetry_2
    _ccdc_geom_bond_type
    Zr10   O18       0.51168      .   S
    Zr16   O18       0.51168      .   S
    Zr16   O19       0.48778      .   S
    Zr11   O19       0.48778      .   S
    Zr13   O20       0.48780      .   S
    Zr17   O20       0.48780      .   S
    Zr17   O21       0.51176      .   S
    Zr12   O21       0.51176      .   S
    Zr8    O22       0.51175      .   S
    Zr15   O22       0.51175      .   S
    Zr15   O23       0.48780      .   S
    Zr9    O23       0.48780      .   S
    Zr7    O24       0.48778      .   S
    Zr14   O24       0.48778      .   S
    Zr14   O25       0.51170      .   S
    Zr6    O25       0.51170      .   S
    Zr14   O26       1.48509      .   S
    Zr0    O26       1.48509      .   S
    Zr14   O27       1.05304      .   S
    Zr2    O27       1.05304  1_554   S
    Zr15   O28       1.48331      .   S
    Zr0    O28       1.48331      .   S
    Zr15   O29       1.05231      .   S
    Zr3    O29       1.05231      .   S
    Zr16   O30       1.48507      .   S
    Zr1    O30       1.48507      .   S
    Zr16   O31       1.05303      .   S
    Zr4    O31       1.05303  1_556   S
    Zr17   O32       1.48334      .   S
    Zr1    O32       1.48334      .   S
    Zr17   O33       1.05230      .   S
    Zr5    O33       1.05230      .   S
    N34    O35       2.47357      .   S
    Zr0    O35       3.80395  1_656   S
    N34    O36       2.30070      .   S
    Zr2    O36       3.25074  1_655   S
    N34    O37       2.22811      .   S
    Zr1    O37       3.29726  1_565   S
    N34    O38       2.30339      .   S
    Zr3    O38       3.26300      .   S
    N39    O40       2.30565  1_566   S
    Zr2    O40       3.26060      .   S
    N39    O41       2.32914  1_565   S
    Zr0    O41       3.49519      .   S
    N39    O42       2.29694      .   S
    Zr4    O42       3.25210      .   S
    N39    O43       2.32297  1_556   S
    Zr1    O43       3.49156      .   S
    N44    O45       2.22936      .   S
    Zr1    O45       3.29903  1_455   S
    N44    O46       2.30285      .   S
    Zr2    O46       3.26228      .   S
    N44    O47       2.47282      .   S
    Zr0    O47       3.80253  1_545   S
    N44    O48       2.30134      .   S
    Zr3    O48       3.25229  1_545   S
    N49    O50       2.30542  1_655   S
    Zr5    O50       3.26017      .   S
    N49    O51       2.33043  1_655   S
    Zr1    O51       3.49741      .   S
    N49    O52       2.29707      .   S
    Zr3    O52       3.25199      .   S
    N49    O53       2.32454      .   S
    Zr0    O53       3.49397      .   S
    N54    O55       2.47618      .   S
    Zr1    O55       3.80690  1_454   S
    N54    O56       2.30179      .   S
    Zr4    O56       3.25167  1_455   S
    N54    O57       2.22664      .   S
    Zr0    O57       3.29604  1_545   S
    N54    O58       2.30155      .   S
    Zr5    O58       3.26132      .   S
    N59    O60       2.47281      .   S
    Zr1    O60       3.80252  1_565   S
    N59    O61       2.30131      .   S
    Zr5    O61       3.25224  1_565   S
    N59    O62       2.22935      .   S
    Zr0    O62       3.29903  1_655   S
    N59    O63       2.30286      .   S
    Zr4    O63       3.26227      .   S
