# CIF file generated by openbabel 2.4.90, see http://openbabel.sf.net
data_I
_chemical_name_common ''
_cell_length_a 12.16
_cell_length_b 12.162
_cell_length_c 12.711
_cell_angle_alpha 102.47
_cell_angle_beta 102.441
_cell_angle_gamma 103.409
_space_group_name_H-M_alt 'P 1'
_space_group_name_Hall 'P 1'
loop_
    _symmetry_equiv_pos_as_xyz
    x,y,z
loop_
    _atom_site_label
    _atom_site_type_symbol
    _atom_site_fract_x
    _atom_site_fract_y
    _atom_site_fract_z
    _atom_site_occupancy
    N0      N    0.16565   0.21512   0.18273   1.000
    N1      N    0.50001   0.99907   0.99997   1.000
    N2      N    0.78485   0.83476   0.31757   1.000
    N3      N    0.99911   0.50002   0.49997   1.000
    N4      N    0.83439   0.78492   0.81659   1.000
    N5      N    0.21519   0.16528   0.68237   1.000
    Zr6     Zr   0.69538   0.30478   0.75051   1.000
    O7      O    0.69081   0.13589   0.56196   1.000
    O8      O    0.75746   0.33634   0.61163   1.000
    O9      O    0.51488   0.25529   0.52521   1.000
    O10     O    0.85231   0.25903   0.88577   1.000
    O11     O    0.87909   0.26043   0.73876   1.000
    O12     O    0.65206   0.20547   0.82825   1.000
    O13     O    0.74102   0.14795   0.61490   1.000
    O14     O    0.79422   0.34811   0.67239   1.000
    O15     O    0.73956   0.12104   0.76149   1.000
    O16     O    0.86442   0.30925   0.93878   1.000
    O17     O    0.66390   0.24216   0.88913   1.000
    O18     O    0.74486   0.48530   0.97569   1.000
    Zr19    Zr   0.30466   0.69527   0.24943   1.000
    O20     O    0.30922   0.86415   0.43798   1.000
    O21     O    0.24212   0.66371   0.38831   1.000
    O22     O    0.48516   0.74476   0.47458   1.000
    O23     O    0.33613   0.75741   0.11081   1.000
    O24     O    0.13562   0.69079   0.06101   1.000
    O25     O    0.25517   0.51474   0.02426   1.000
    O26     O    0.25902   0.85210   0.38505   1.000
    O27     O    0.12095   0.73961   0.26118   1.000
    O28     O    0.20536   0.65193   0.32755   1.000
    O29     O    0.14772   0.74101   0.11402   1.000
    O30     O    0.34798   0.79409   0.17169   1.000
    O31     O    0.26048   0.87900   0.23830   1.000
loop_
    _geom_bond_atom_site_label_1
    _geom_bond_atom_site_label_2
    _geom_bond_distance
    _geom_bond_site_symmetry_2
    _ccdc_geom_bond_type
    Zr6    O7        2.78030      .   S
    N2     O7        4.78853  1_565   S
    Zr6    O8        2.13686      .   S
    N3     O8        3.86215      .   S
    Zr6    O9        3.05213      .   S
    N0     O9        5.23240      .   S
    Zr6    O10       2.52962      .   S
    N0     O10       4.96671  1_454   S
    Zr6    O11       2.44367      .   S
    N5     O11       4.65335  1_455   S
    Zr6    O12       1.77684      .   S
    N1     O12       4.05412  1_565   S
    Zr6    O13       2.52999      .   S
    N2     O13       4.96674  1_565   S
    Zr6    O14       1.77619      .   S
    N3     O14       4.04858      .   S
    Zr6    O15       2.44148      .   S
    N4     O15       4.64823  1_565   S
    Zr6    O16       2.77982      .   S
    N0     O16       4.78823  1_454   S
    Zr6    O17       2.13680      .   S
    N1     O17       3.86946  1_565   S
    Zr6    O18       3.05054      .   S
    N2     O18       5.22875  1_554   S
    Zr19   O20       2.78028      .   S
    N5     O20       4.78847  1_545   S
    Zr19   O21       2.13954      .   S
    N3     O21       3.87406  1_655   S
    Zr19   O22       3.05067      .   S
    N4     O22       5.22861      .   S
    Zr19   O23       2.13397      .   S
    N1     O23       3.85698  1_556   S
    Zr19   O24       2.78120      .   S
    N4     O24       4.79141  1_656   S
    Zr19   O25       3.05057      .   S
    N5     O25       5.22880  1_556   S
    Zr19   O26       2.52996      .   S
    N5     O26       4.96670  1_545   S
    Zr19   O27       2.44367      .   S
    N2     O27       4.65335  1_655   S
    Zr19   O28       1.78019      .   S
    N3     O28       4.05892  1_655   S
    Zr19   O29       2.53075      .   S
    N4     O29       4.97038  1_656   S
    Zr19   O30       1.77263      .   S
    N1     O30       4.04327  1_556   S
    Zr19   O31       2.44188      .   S
    N0     O31       4.64991  1_545   S
