# CIF file generated by openbabel 2.4.90, see http://openbabel.sf.net
data_I
_chemical_name_common ''
_cell_length_a 6.3285
_cell_length_b 13.6015
_cell_length_c 14.666
_cell_angle_alpha 90.018
_cell_angle_beta 90.088
_cell_angle_gamma 95.761
_space_group_name_H-M_alt 'P 1'
_space_group_name_Hall 'P 1'
loop_
    _symmetry_equiv_pos_as_xyz
    x,y,z
loop_
    _atom_site_label
    _atom_site_type_symbol
    _atom_site_fract_x
    _atom_site_fract_y
    _atom_site_fract_z
    _atom_site_occupancy
    N0      N    0.99907   0.74041   0.26997   1.000
    N1      N    0.49933   0.24064   0.22957   1.000
    N2      N    0.99273   0.25997   0.72952   1.000
    N3      N    0.49275   0.75959   0.76978   1.000
    Zr4     Zr   0.72093   0.94932   0.44457   1.000
    O5      O    0.80996   0.04105   0.52995   1.000
    O6      O    0.63957   0.89586   0.54188   1.000
    Zr7     Zr   0.77081   0.55094   0.94481   1.000
    O8      O    0.85289   0.60426   0.04206   1.000
    O9      O    0.68184   0.45935   0.03015   1.000
    Zr10    Zr   0.27127   0.05138   0.55437   1.000
    O11     O    0.18207   0.95958   0.46916   1.000
    O12     O    0.35323   0.10463   0.45723   1.000
    Zr13    Zr   0.22051   0.44951   0.05484   1.000
    O14     O    0.13872   0.39620   0.95751   1.000
    O15     O    0.30967   0.54107   0.96945   1.000
    O16     O    0.15143   0.53987   0.11654   1.000
    O17     O    0.29347   0.39253   0.10312   1.000
    O18     O    0.34073   0.96062   0.61601   1.000
    O19     O    0.19837   0.10823   0.60279   1.000
    O20     O    0.69803   0.60788   0.89647   1.000
    O21     O    0.84010   0.46055   0.88307   1.000
    O22     O    0.79366   0.89235   0.39636   1.000
    O23     O    0.65176   0.03983   0.38293   1.000
loop_
    _geom_bond_atom_site_label_1
    _geom_bond_atom_site_label_2
    _geom_bond_distance
    _geom_bond_site_symmetry_2
    _ccdc_geom_bond_type
    Zr4    O5        1.81599  1_565   S
    N2     O5        4.25012      .   S
    Zr4    O6        1.66094      .   S
    N3     O6        3.89067      .   S
    Zr7    O8        1.65881  1_556   S
    N0     O8        3.88596      .   S
    Zr7    O9        1.81597  1_556   S
    N1     O9        4.25014      .   S
    Zr10   O11       1.81514  1_545   S
    N0     O11       4.24882  1_655   S
    Zr10   O12       1.65850      .   S
    N1     O12       3.88519      .   S
    Zr13   O14       1.65928  1_554   S
    N2     O14       3.88720  1_655   S
    Zr13   O15       1.81658  1_554   S
    N3     O15       4.25163      .   S
    Zr13   O16       1.62134      .   S
    N0     O16       3.73692  1_655   S
    Zr13   O17       1.17737      .   S
    N1     O17       3.15280      .   S
    Zr10   O18       1.62567  1_545   S
    N3     O18       3.74345      .   S
    Zr10   O19       1.17790      .   S
    N2     O19       3.15462  1_655   S
    Zr7    O20       1.17701      .   S
    N3     O20       3.15145      .   S
    Zr7    O21       1.62244      .   S
    N2     O21       3.73890      .   S
    Zr4    O22       1.17657      .   S
    N0     O22       3.15292      .   S
    Zr4    O23       1.62231  1_565   S
    N1     O23       3.73837      .   S
