# CIF file generated by openbabel 2.4.90, see http://openbabel.sf.net
data_I
_chemical_name_common ''
_cell_length_a 6.3285
_cell_length_b 13.6015
_cell_length_c 14.666
_cell_angle_alpha 90.018
_cell_angle_beta 90.088
_cell_angle_gamma 95.761
_space_group_name_H-M_alt 'P 1'
_space_group_name_Hall 'P 1'
loop_
    _symmetry_equiv_pos_as_xyz
    x,y,z
loop_
    _atom_site_label
    _atom_site_type_symbol
    _atom_site_fract_x
    _atom_site_fract_y
    _atom_site_fract_z
    _atom_site_occupancy
    Zr0     Zr   0.22051   0.44951   0.05484   1.000
    Zr1     Zr   0.27127   0.05138   0.55437   1.000
    Zr2     Zr   0.77081   0.55094   0.94481   1.000
    Zr3     Zr   0.72093   0.94932   0.44457   1.000
    N4      N    0.99907   0.74041   0.26997   1.000
    O5      O    0.09286   0.86778   0.38395   1.000
    O6      O    0.95528   0.84226   0.35650   1.000
    O7      O    0.93497   0.65758   0.13931   1.000
    O8      O    0.04739   0.63223   0.16682   1.000
    O9      O    0.11728   0.62822   0.18964   1.000
    O10     O    0.77748   0.82851   0.33980   1.000
    N11     N    0.49933   0.24064   0.22957   1.000
    O12     O    0.45529   0.34241   0.14300   1.000
    O13     O    0.59286   0.36776   0.11549   1.000
    O14     O    0.43520   0.15787   0.36009   1.000
    O15     O    0.54761   0.13235   0.33264   1.000
    O16     O    0.61756   0.12831   0.30995   1.000
    O17     O    0.27757   0.32869   0.15978   1.000
    N18     N    0.99273   0.25997   0.72952   1.000
    O19     O    0.87428   0.37208   0.81000   1.000
    O20     O    0.21436   0.17189   0.65964   1.000
    O21     O    0.03657   0.15829   0.64279   1.000
    O22     O    0.89899   0.13277   0.61534   1.000
    O23     O    0.05693   0.34289   0.86017   1.000
    O24     O    0.94451   0.36825   0.83266   1.000
    N25     N    0.49275   0.75959   0.76978   1.000
    O26     O    0.39882   0.63263   0.88405   1.000
    O27     O    0.53640   0.65799   0.85654   1.000
    O28     O    0.55821   0.84239   0.63920   1.000
    O29     O    0.44580   0.86791   0.66665   1.000
    O30     O    0.37458   0.87181   0.68864   1.000
    O31     O    0.71410   0.67164   0.83974   1.000
loop_
    _geom_bond_atom_site_label_1
    _geom_bond_atom_site_label_2
    _geom_bond_distance
    _geom_bond_site_symmetry_2
    _ccdc_geom_bond_type
    N4     O5        2.43649  1_655   S
    Zr1    O5        3.63027  1_545   S
    N4     O6        1.91925      .   S
    Zr3    O6        2.53497      .   S
    N4     O7        2.23837      .   S
    Zr2    O7        3.31763  1_556   S
    N4     O8        2.15353  1_655   S
    Zr0    O8        3.25939      .   S
    N4     O9        2.12290  1_655   S
    Zr0    O9        3.25022      .   S
    N4     O10       2.18904      .   S
    Zr3    O10       2.30379      .   S
    N11    O12       1.91918      .   S
    Zr0    O12       2.53592      .   S
    N11    O13       2.43698      .   S
    Zr2    O13       3.63195  1_556   S
    N11    O14       2.23787      .   S
    Zr1    O14       3.31701      .   S
    N11    O15       2.15352      .   S
    Zr3    O15       3.26203  1_565   S
    N11    O16       2.12400      .   S
    Zr3    O16       3.25143  1_565   S
    N11    O17       2.18756      .   S
    Zr0    O17       2.30614      .   S
    N18    O19       2.12398      .   S
    Zr2    O19       3.25220      .   S
    N18    O20       2.18951  1_655   S
    Zr1    O20       2.30619      .   S
    N18    O21       1.91958  1_655   S
    Zr1    O21       2.53778      .   S
    N18    O22       2.43690      .   S
    Zr3    O22       3.63197  1_565   S
    N18    O23       2.23901  1_655   S
    Zr0    O23       3.31855  1_554   S
    N18    O24       2.15424      .   S
    Zr2    O24       3.26178      .   S
    N25    O26       2.43781      .   S
    Zr0    O26       3.63315  1_554   S
    N25    O27       1.91884      .   S
    Zr2    O27       2.53484      .   S
    N25    O28       2.24000      .   S
    Zr3    O28       3.32188      .   S
    N25    O29       2.15274      .   S
    Zr1    O29       3.27257  1_545   S
    N25    O30       2.12902      .   S
    Zr1    O30       3.25429  1_545   S
    N25    O31       2.18604      .   S
    Zr2    O31       2.30583      .   S
