# CIF file generated by openbabel 2.4.90, see http://openbabel.sf.net
data_I
_chemical_name_common ''
_cell_length_a 6.3285
_cell_length_b 13.6015
_cell_length_c 14.666
_cell_angle_alpha 90.018
_cell_angle_beta 90.088
_cell_angle_gamma 95.761
_space_group_name_H-M_alt 'P 1'
_space_group_name_Hall 'P 1'
loop_
    _symmetry_equiv_pos_as_xyz
    x,y,z
loop_
    _atom_site_label
    _atom_site_type_symbol
    _atom_site_fract_x
    _atom_site_fract_y
    _atom_site_fract_z
    _atom_site_occupancy
    N0      N    0.99907   0.74041   0.26997   1.000
    N1      N    0.49933   0.24064   0.22957   1.000
    N2      N    0.99273   0.25997   0.72952   1.000
    N3      N    0.49275   0.75959   0.76978   1.000
    Zr4     Zr   0.72093   0.94932   0.44457   1.000
    O5      O    0.80996   0.04105   0.52995   1.000
    O6      O    0.83811   0.89579   0.40053   1.000
    O7      O    0.74921   0.88891   0.39218   1.000
    O8      O    0.63427   0.04084   0.38860   1.000
    O9      O    0.66925   0.03882   0.37726   1.000
    O10     O    0.63957   0.89586   0.54188   1.000
    Zr11    Zr   0.77081   0.55094   0.94481   1.000
    O12     O    0.65360   0.60446   0.90067   1.000
    O13     O    0.82254   0.46151   0.87740   1.000
    O14     O    0.74245   0.61129   0.89227   1.000
    O15     O    0.85289   0.60426   0.04206   1.000
    O16     O    0.68184   0.45935   0.03015   1.000
    O17     O    0.85766   0.45959   0.88874   1.000
    Zr18    Zr   0.27127   0.05138   0.55437   1.000
    O19     O    0.35853   0.95964   0.61051   1.000
    O20     O    0.24281   0.11163   0.60700   1.000
    O21     O    0.15392   0.10483   0.59858   1.000
    O22     O    0.32293   0.96160   0.62150   1.000
    O23     O    0.18207   0.95958   0.46916   1.000
    O24     O    0.35323   0.10463   0.45723   1.000
    Zr25    Zr   0.22051   0.44951   0.05484   1.000
    O26     O    0.13395   0.54087   0.11083   1.000
    O27     O    0.16890   0.53887   0.12224   1.000
    O28     O    0.24904   0.38910   0.10731   1.000
    O29     O    0.33790   0.39596   0.09892   1.000
    O30     O    0.13872   0.39620   0.95751   1.000
    O31     O    0.30967   0.54107   0.96945   1.000
loop_
    _geom_bond_atom_site_label_1
    _geom_bond_atom_site_label_2
    _geom_bond_distance
    _geom_bond_site_symmetry_2
    _ccdc_geom_bond_type
    Zr4    O5        1.81599  1_565   S
    N2     O5        4.25012      .   S
    Zr4    O6        1.26748      .   S
    N0     O6        3.09941      .   S
    Zr4    O7        1.15189      .   S
    N0     O7        3.23113      .   S
    Zr4    O8        1.63102  1_565   S
    N1     O8        3.74407      .   S
    Zr4    O9        1.62572  1_565   S
    N1     O9        3.73794      .   S
    Zr4    O10       1.66094      .   S
    N3     O10       3.89067      .   S
    Zr11   O12       1.26742      .   S
    N3     O12       3.09860      .   S
    Zr11   O13       1.62610      .   S
    N2     O13       3.73824      .   S
    Zr11   O14       1.15291      .   S
    N3     O14       3.22907      .   S
    Zr11   O15       1.65881  1_556   S
    N0     O15       3.88596      .   S
    Zr11   O16       1.81597  1_556   S
    N1     O16       4.25014      .   S
    Zr11   O17       1.63089      .   S
    N2     O17       3.74481      .   S
    Zr18   O19       1.63629  1_545   S
    N3     O19       3.74748      .   S
    Zr18   O20       1.15309      .   S
    N2     O20       3.23288  1_655   S
    Zr18   O21       1.26889      .   S
    N2     O21       3.10105  1_655   S
    Zr18   O22       1.62715  1_545   S
    N3     O22       3.74468      .   S
    Zr18   O23       1.81514  1_545   S
    N0     O23       4.24882  1_655   S
    Zr18   O24       1.65850      .   S
    N1     O24       3.88519      .   S
    Zr25   O26       1.62969      .   S
    N0     O26       3.74294  1_655   S
    Zr25   O27       1.62511      .   S
    N0     O27       3.73617  1_655   S
    Zr25   O28       1.15307      .   S
    N1     O28       3.23066      .   S
    Zr25   O29       1.26796      .   S
    N1     O29       3.09967      .   S
    Zr25   O30       1.65928  1_554   S
    N2     O30       3.88720  1_655   S
    Zr25   O31       1.81658  1_554   S
    N3     O31       4.25163      .   S
