# CIF file generated by openbabel 2.4.90, see http://openbabel.sf.net
data_I
_chemical_name_common 'VESTA_phase_1'
_cell_length_a 17.202
_cell_length_b 18.548
_cell_length_c 18.556
_cell_angle_alpha 77.633
_cell_angle_beta 62.433
_cell_angle_gamma 62.424
_space_group_name_H-M_alt 'P 1'
_space_group_name_Hall 'P 1'
loop_
    _symmetry_equiv_pos_as_xyz
    x,y,z
loop_
    _atom_site_label
    _atom_site_type_symbol
    _atom_site_fract_x
    _atom_site_fract_y
    _atom_site_fract_z
    _atom_site_occupancy
    K0      K    0.31230   0.37526   0.37520   1.000
    K1      K    0.31230   0.37526   0.87521   1.000
    K2      K    0.31230   0.87525   0.37522   1.000
    K3      K    0.31230   0.87525   0.87521   1.000
    K4      K    0.81231   0.37526   0.37522   1.000
    K5      K    0.81231   0.37526   0.87521   1.000
    K6      K    0.81231   0.87525   0.37522   1.000
    K7      K    0.81231   0.87525   0.87521   1.000
    K8      K    0.18761   0.12495   0.12490   1.000
    K9      K    0.18761   0.12495   0.62488   1.000
    K10     K    0.18761   0.62494   0.12490   1.000
    K11     K    0.18761   0.62494   0.62488   1.000
    K12     K    0.68762   0.12495   0.12490   1.000
    K13     K    0.68762   0.12495   0.62488   1.000
    K14     K    0.68762   0.62494   0.12490   1.000
    K15     K    0.68762   0.62494   0.62488   1.000
    Y16     Y    0.06251   0.37504   0.37499   1.000
    Y17     Y    0.06251   0.37504   0.87490   1.000
    Y18     Y    0.06251   0.87503   0.37499   1.000
    Y19     Y    0.06251   0.87503   0.87497   1.000
    Y20     Y    0.56252   0.37504   0.37499   1.000
    Y21     Y    0.56252   0.37504   0.87497   1.000
    Y22     Y    0.56252   0.87503   0.37490   1.000
    Y23     Y    0.56252   0.87503   0.87497   1.000
    Y24     Y    0.43740   0.12516   0.12513   1.000
    Y25     Y    0.43740   0.12516   0.62512   1.000
    Y26     Y    0.43740   0.62516   0.12513   1.000
    Y27     Y    0.43740   0.62516   0.62512   1.000
    Y28     Y    0.93741   0.12516   0.12513   1.000
    Y29     Y    0.93741   0.12517   0.62512   1.000
    Y30     Y    0.93741   0.62516   0.12513   1.000
    Y31     Y    0.93741   0.62516   0.62512   1.000
    C32     C    0.28121   0.26119   0.26117   1.000
    C33     C    0.28121   0.26120   0.76116   1.000
    C34     C    0.28122   0.76119   0.26117   1.000
    C35     C    0.28122   0.76119   0.76110   1.000
    C36     C    0.78122   0.26119   0.26118   1.000
    C37     C    0.78122   0.26120   0.76116   1.000
    C38     C    0.78123   0.76119   0.26117   1.000
    C39     C    0.78123   0.76119   0.76116   1.000
    C40     C    0.05332   0.48909   0.48903   1.000
    C41     C    0.05332   0.48909   0.98902   1.000
    C42     C    0.05332   0.98908   0.48900   1.000
    C43     C    0.05332   0.98909   0.98902   1.000
    C44     C    0.55333   0.48909   0.48903   1.000
    C45     C    0.55333   0.48909   0.98902   1.000
    C46     C    0.55333   0.98908   0.48904   1.000
    C47     C    0.55333   0.98909   0.98902   1.000
    C48     C    0.04231   0.23904   0.01110   1.000
    C49     C    0.04232   0.23905   0.51110   1.000
    C50     C    0.04232   0.73903   0.01111   1.000
    C51     C    0.04232   0.73903   0.51100   1.000
    C52     C    0.54233   0.23905   0.01111   1.000
    C53     C    0.54233   0.23904   0.51110   1.000
    C54     C    0.54233   0.73903   0.01111   1.000
    C55     C    0.54233   0.73904   0.51109   1.000
    C56     C    0.04233   0.01114   0.23898   1.000
    C57     C    0.04233   0.01115   0.73897   1.000
    C58     C    0.04233   0.51113   0.23898   1.000
    C59     C    0.04233   0.51114   0.73897   1.000
    C60     C    0.54234   0.01114   0.23898   1.000
    C61     C    0.54234   0.01114   0.73897   1.000
    C62     C    0.54234   0.51113   0.23898   1.000
    C63     C    0.54234   0.51114   0.73890   1.000
    C64     C    0.21870   0.23900   0.23896   1.000
    C65     C    0.21870   0.23900   0.73895   1.000
    C66     C    0.21870   0.73900   0.23896   1.000
    C67     C    0.21870   0.73900   0.73894   1.000
    C68     C    0.71871   0.23900   0.23896   1.000
    C69     C    0.71871   0.23900   0.73895   1.000
    C70     C    0.71871   0.73900   0.23895   1.000
    C71     C    0.71871   0.73900   0.73894   1.000
    C72     C    0.44657   0.01112   0.01109   1.000
    C73     C    0.44657   0.01112   0.51108   1.000
    C74     C    0.44657   0.51111   0.01109   1.000
    C75     C    0.44657   0.51112   0.51108   1.000
    C76     C    0.94659   0.01112   0.01109   1.000
    C77     C    0.94659   0.01112   0.51108   1.000
    C78     C    0.94658   0.51111   0.01109   1.000
    C79     C    0.94659   0.51112   0.51108   1.000
    C80     C    0.45760   0.26116   0.48900   1.000
    C81     C    0.45760   0.26116   0.98899   1.000
    C82     C    0.45761   0.76115   0.48900   1.000
    C83     C    0.45761   0.76115   0.98890   1.000
    C84     C    0.95761   0.26116   0.48900   1.000
    C85     C    0.95761   0.26116   0.98899   1.000
    C86     C    0.95762   0.76114   0.48900   1.000
    C87     C    0.95762   0.76115   0.98898   1.000
    C88     C    0.45760   0.48904   0.26112   1.000
    C89     C    0.45760   0.48905   0.76111   1.000
    C90     C    0.45760   0.98904   0.26112   1.000
    C91     C    0.45760   0.98904   0.76111   1.000
    C92     C    0.95761   0.48905   0.26112   1.000
    C93     C    0.95761   0.48905   0.76111   1.000
    C94     C    0.95761   0.98904   0.26112   1.000
    C95     C    0.95761   0.98904   0.76111   1.000
    O96     O    0.23583   0.31533   0.31533   1.000
    O97     O    0.23583   0.31533   0.81530   1.000
    O98     O    0.23584   0.81533   0.31532   1.000
    O99     O    0.23584   0.81533   0.81531   1.000
    O100    O    0.73584   0.31533   0.31533   1.000
    O101    O    0.73584   0.31534   0.81531   1.000
    O102    O    0.73585   0.81533   0.31532   1.000
    O103    O    0.73585   0.81533   0.81531   1.000
    O104    O    0.09597   0.47382   0.27617   1.000
    O105    O    0.09598   0.47382   0.77616   1.000
    O106    O    0.09597   0.97382   0.27618   1.000
    O107    O    0.09597   0.97382   0.77616   1.000
    O108    O    0.59598   0.47381   0.27617   1.000
    O109    O    0.59599   0.47382   0.77610   1.000
    O110    O    0.59598   0.97382   0.27617   1.000
    O111    O    0.59598   0.97382   0.77616   1.000
    O112    O    0.11624   0.43498   0.43488   1.000
    O113    O    0.11624   0.43498   0.93487   1.000
    O114    O    0.11624   0.93497   0.43489   1.000
    O115    O    0.11624   0.93498   0.93487   1.000
    O116    O    0.61625   0.43498   0.43489   1.000
    O117    O    0.61625   0.43499   0.93487   1.000
    O118    O    0.61625   0.93497   0.43489   1.000
    O119    O    0.61625   0.93498   0.93487   1.000
    O120    O    0.09596   0.27624   0.47377   1.000
    O121    O    0.09596   0.27624   0.97376   1.000
    O122    O    0.09597   0.77622   0.47376   1.000
    O123    O    0.09597   0.77623   0.97375   1.000
    O124    O    0.59597   0.27623   0.47377   1.000
    O125    O    0.59597   0.27624   0.97375   1.000
    O126    O    0.59598   0.77622   0.47376   1.000
    O127    O    0.59598   0.77623   0.97375   1.000
    O128    O    0.05099   0.18502   0.06535   1.000
    O129    O    0.05100   0.18502   0.56530   1.000
    O130    O    0.05100   0.68501   0.06535   1.000
    O131    O    0.05100   0.68501   0.56533   1.000
    O132    O    0.55100   0.18502   0.06535   1.000
    O133    O    0.55101   0.18502   0.56534   1.000
    O134    O    0.55101   0.68501   0.06535   1.000
    O135    O    0.55101   0.68501   0.56533   1.000
    O136    O    0.37200   0.22399   0.22397   1.000
    O137    O    0.37200   0.22399   0.72390   1.000
    O138    O    0.37201   0.72399   0.22396   1.000
    O139    O    0.37201   0.72399   0.72395   1.000
    O140    O    0.87201   0.22399   0.22397   1.000
    O141    O    0.87201   0.22399   0.72395   1.000
    O142    O    0.87202   0.72399   0.22396   1.000
    O143    O    0.87202   0.72399   0.72395   1.000
    O144    O    0.05104   0.06535   0.18492   1.000
    O145    O    0.05104   0.06535   0.68491   1.000
    O146    O    0.05104   0.56534   0.18492   1.000
    O147    O    0.05104   0.56534   0.68490   1.000
    O148    O    0.55105   0.06535   0.18492   1.000
    O149    O    0.55105   0.06535   0.68491   1.000
    O150    O    0.55105   0.56534   0.18492   1.000
    O151    O    0.55105   0.56534   0.68490   1.000
    O152    O    0.06959   0.02639   0.02637   1.000
    O153    O    0.06959   0.02639   0.52635   1.000
    O154    O    0.06959   0.52638   0.02630   1.000
    O155    O    0.06959   0.52638   0.52635   1.000
    O156    O    0.56960   0.02639   0.02637   1.000
    O157    O    0.56960   0.02639   0.52630   1.000
    O158    O    0.56960   0.52638   0.02637   1.000
    O159    O    0.56960   0.52639   0.52635   1.000
    O160    O    0.26408   0.18487   0.18480   1.000
    O161    O    0.26408   0.18486   0.68479   1.000
    O162    O    0.26409   0.68486   0.18480   1.000
    O163    O    0.26409   0.68486   0.68479   1.000
    O164    O    0.76409   0.18486   0.18481   1.000
    O165    O    0.76409   0.18487   0.68479   1.000
    O166    O    0.76410   0.68486   0.18480   1.000
    O167    O    0.76410   0.68486   0.68479   1.000
    O168    O    0.40396   0.02637   0.22393   1.000
    O169    O    0.40396   0.02637   0.72392   1.000
    O170    O    0.40395   0.52637   0.22394   1.000
    O171    O    0.40395   0.52637   0.72392   1.000
    O172    O    0.90397   0.02637   0.22393   1.000
    O173    O    0.90397   0.02637   0.72390   1.000
    O174    O    0.90396   0.52637   0.22394   1.000
    O175    O    0.90396   0.52637   0.72392   1.000
    O176    O    0.38366   0.06523   0.06524   1.000
    O177    O    0.38366   0.06523   0.56523   1.000
    O178    O    0.38366   0.56522   0.06525   1.000
    O179    O    0.38366   0.56522   0.56523   1.000
    O180    O    0.88367   0.06523   0.06524   1.000
    O181    O    0.88367   0.06523   0.56523   1.000
    O182    O    0.88367   0.56522   0.06520   1.000
    O183    O    0.88367   0.56522   0.56523   1.000
    O184    O    0.40395   0.22397   0.02635   1.000
    O185    O    0.40395   0.22397   0.52634   1.000
    O186    O    0.40396   0.72395   0.02635   1.000
    O187    O    0.40395   0.72396   0.52633   1.000
    O188    O    0.90396   0.22397   0.02635   1.000
    O189    O    0.90396   0.22397   0.52634   1.000
    O190    O    0.90397   0.72396   0.02634   1.000
    O191    O    0.90397   0.72396   0.52630   1.000
    O192    O    0.44892   0.31518   0.43476   1.000
    O193    O    0.44893   0.31518   0.93470   1.000
    O194    O    0.44893   0.81517   0.43476   1.000
    O195    O    0.44893   0.81517   0.93474   1.000
    O196    O    0.94893   0.31518   0.43476   1.000
    O197    O    0.94894   0.31518   0.93475   1.000
    O198    O    0.94894   0.81517   0.43476   1.000
    O199    O    0.94894   0.81517   0.93474   1.000
    O200    O    0.12791   0.27620   0.27617   1.000
    O201    O    0.12791   0.27620   0.77615   1.000
    O202    O    0.12791   0.77620   0.27616   1.000
    O203    O    0.12791   0.77620   0.77615   1.000
    O204    O    0.62792   0.27620   0.27617   1.000
    O205    O    0.62792   0.27621   0.77615   1.000
    O206    O    0.62792   0.77620   0.27616   1.000
    O207    O    0.62792   0.77620   0.77615   1.000
    O208    O    0.44889   0.43484   0.31518   1.000
    O209    O    0.44889   0.43484   0.81517   1.000
    O210    O    0.44890   0.93483   0.31518   1.000
    O211    O    0.44890   0.93483   0.81517   1.000
    O212    O    0.94890   0.43484   0.31518   1.000
    O213    O    0.94891   0.43484   0.81517   1.000
    O214    O    0.94891   0.93483   0.31518   1.000
    O215    O    0.94891   0.93483   0.81516   1.000
    O216    O    0.43031   0.47382   0.47376   1.000
    O217    O    0.43031   0.47382   0.97374   1.000
    O218    O    0.43031   0.97381   0.47375   1.000
    O219    O    0.43031   0.97381   0.97374   1.000
    O220    O    0.93032   0.47382   0.47370   1.000
    O221    O    0.93032   0.47382   0.97374   1.000
    O222    O    0.93032   0.97381   0.47375   1.000
    O223    O    0.93032   0.97382   0.97374   1.000
loop_
    _geom_bond_atom_site_label_1
    _geom_bond_atom_site_label_2
    _geom_bond_distance
    _geom_bond_site_symmetry_2
    _ccdc_geom_bond_type
    C74    O178      1.26814      .   S
    C74    O217      1.26531  1_554   S
    C74    C45       1.54535  1_554   S
    C78    O182      1.26762      .   S
    C78    O221      1.26534  1_554   S
    C78    C41       1.54499  1_654   S
    C72    O176      1.26806      .   S
    C72    O219      1.26554  1_544   S
    C72    C47       1.54526  1_544   S
    C76    O180      1.26806      .   S
    C76    O223      1.26550  1_544   S
    C76    C43       1.54492  1_644   S
    C48    O128      1.26819      .   S
    C48    O121      1.26512  1_554   S
    C48    C85       1.54516  1_454   S
    C52    O132      1.26807      .   S
    C52    O125      1.26516  1_554   S
    C52    C81       1.54564  1_554   S
    C54    O134      1.26805      .   S
    C54    O127      1.26516  1_554   S
    C54    C83       1.54671  1_554   S
    C50    O130      1.26805      .   S
    C50    O123      1.26516  1_554   S
    C50    C87       1.54540  1_454   S
    O154   Y30       2.36905  1_455   S
    O154   C41       1.26438  1_554   S
    O190   Y30       2.36868      .   S
    O190   C87       1.26515  1_554   S
    O184   Y24       2.36861      .   S
    O184   C81       1.26516  1_554   S
    O188   Y28       2.36860      .   S
    O188   C85       1.26516  1_554   S
    O186   Y26       2.36854      .   S
    O186   C83       1.26531  1_554   S
    O152   Y28       2.36841  1_455   S
    O152   C43       1.26555  1_544   S
    O156   Y24       2.36850      .   S
    O156   C47       1.26558  1_544   S
    O158   Y26       2.36849      .   S
    O158   C45       1.26537  1_554   S
    O182   K14       2.72693      .   S
    O176   K8        2.72703      .   S
    O180   K12       2.72701      .   S
    O178   K10       2.72699      .   S
    Y24    O160      2.39875      .   S
    Y24    O148      2.39914      .   S
    Y24    O168      2.36872      .   S
    Y24    O136      2.36865      .   S
    Y30    O166      2.39873      .   S
    Y30    O146      2.39886  1_655   S
    Y30    O174      2.36875      .   S
    Y30    O142      2.36857      .   S
    Y28    O164      2.39875      .   S
    Y28    O144      2.39885  1_655   S
    Y28    O172      2.36873      .   S
    Y28    O140      2.36865      .   S
    Y26    O162      2.39873      .   S
    Y26    O150      2.39917      .   S
    Y26    O170      2.36875      .   S
    Y26    O138      2.36858      .   S
    O166   C70       1.26796      .   S
    O162   C66       1.26809      .   S
    O160   C64       1.26809      .   S
    O164   C68       1.26798      .   S
    O150   C62       1.26800      .   S
    O148   C60       1.26803      .   S
    O146   C58       1.26800      .   S
    O144   C56       1.26803      .   S
    O172   C94       1.26502  1_545   S
    O168   C90       1.26500  1_545   S
    O174   C92       1.26491      .   S
    O170   C88       1.26492      .   S
    O142   C38       1.26500      .   S
    O138   C34       1.26500      .   S
    O140   C36       1.26500      .   S
    O136   C32       1.26498      .   S
    C70    C38       1.54559      .   S
    C70    O206      1.26501      .   S
    C68    C36       1.54559      .   S
    C68    O204      1.26501      .   S
    C64    C32       1.54549      .   S
    C64    O200      1.26499      .   S
    C66    C34       1.54550      .   S
    C66    O202      1.26498      .   S
    C58    C92       1.54508  1_455   S
    C58    O104      1.26500      .   S
    C60    C90       1.54561  1_545   S
    C60    O110      1.26495  1_545   S
    C62    C88       1.54543      .   S
    C62    O108      1.26500      .   S
    C56    C94       1.54524  1_445   S
    C56    O106      1.26509  1_545   S
    C88    O208      1.26804      .   S
    C94    O214      1.26807      .   S
    C92    O212      1.26804      .   S
    C90    O210      1.26807      .   S
    C38    O102      1.26801      .   S
    C34    O98       1.26800      .   S
    C32    O96       1.26812      .   S
    C36    O100      1.26799      .   S
    O202   Y18       2.36859      .   S
    O206   Y22       2.36739      .   S
    O104   Y16       2.36874      .   S
    O200   Y16       2.36850      .   S
    O108   Y20       2.36873      .   S
    O110   Y22       2.36797      .   S
    O204   Y20       2.36850      .   S
    O106   Y18       2.36871      .   S
    O210   Y22       2.39786      .   S
    O212   Y16       2.39882  1_655   S
    O214   Y18       2.39879  1_655   S
    O208   Y20       2.39911      .   S
    O98    Y18       2.39885      .   S
    O102   Y22       2.39887      .   S
    O100   Y20       2.39885      .   S
    O96    Y16       2.39885      .   S
    Y22    O218      2.36947      .   S
    Y22    O126      2.36975      .   S
    Y20    O216      2.36874      .   S
    Y20    O124      2.36863      .   S
    Y18    O222      2.36856  1_455   S
    Y18    O122      2.36855      .   S
    Y16    O220      2.36810  1_455   S
    Y16    O120      2.36862      .   S
    O196   C84       1.26803      .   S
    O198   C86       1.26804      .   S
    O194   C82       1.26803      .   S
    O192   C80       1.26802      .   S
    O112   C40       1.26806      .   S
    O118   C46       1.26806      .   S
    O116   C44       1.26796      .   S
    O114   C42       1.26766      .   S
    O220   C79       1.26584      .   S
    O222   C77       1.26536  1_565   S
    O218   C73       1.26533  1_565   S
    O216   C75       1.26500      .   S
    O126   C55       1.26500      .   S
    O122   C51       1.26485      .   S
    O124   C53       1.26502      .   S
    O120   C49       1.26501      .   S
    C42    C77       1.54480  1_465   S
    C42    O153      1.26568  1_565   S
    C86    C51       1.54391  1_655   S
    C86    O191      1.26495      .   S
    C84    C49       1.54511  1_655   S
    C84    O189      1.26501      .   S
    C82    C55       1.54534      .   S
    C82    O187      1.26501      .   S
    C80    C53       1.54546      .   S
    C80    O185      1.26502      .   S
    C44    C75       1.54538      .   S
    C44    O159      1.26505      .   S
    C40    C79       1.54502  1_455   S
    C40    O155      1.26504      .   S
    C46    C73       1.54533  1_565   S
    C46    O157      1.26440  1_565   S
    C51    O131      1.26920      .   S
    C77    O181      1.26805      .   S
    C75    O179      1.26804      .   S
    C73    O177      1.26804      .   S
    C79    O183      1.26802      .   S
    C55    O135      1.26807      .   S
    C49    O129      1.26759      .   S
    C53    O133      1.26809      .   S
    O157   Y25       2.36905      .   S
    O191   Y31       2.36913      .   S
    O187   Y27       2.36873      .   S
    O185   Y25       2.36865      .   S
    O189   Y29       2.36866      .   S
    O153   Y29       2.36851  1_455   S
    O159   Y27       2.36860      .   S
    O155   Y31       2.36851  1_455   S
    O183   K15       2.72700      .   S
    O179   K11       2.72700      .   S
    O177   K9        2.72701      .   S
    O133   K13       2.72697      .   S
    Y27    O163      2.39874      .   S
    Y27    O151      2.39903      .   S
    Y27    O171      2.36866      .   S
    Y27    O139      2.36858      .   S
    Y25    O161      2.39875      .   S
    Y25    O149      2.39916      .   S
    Y25    O137      2.36786      .   S
    Y25    O169      2.36872      .   S
    Y29    O165      2.39875      .   S
    Y29    O145      2.39883  1_655   S
    Y29    O173      2.36854      .   S
    Y29    O141      2.36853      .   S
    Y31    O167      2.39874      .   S
    Y31    O147      2.39872  1_655   S
    Y31    O175      2.36866      .   S
    Y31    O143      2.36858      .   S
    O165   C69       1.26811      .   S
    O161   C65       1.26810      .   S
    O163   C67       1.26799      .   S
    O167   C71       1.26797      .   S
    O151   C63       1.26738      .   S
    O147   C59       1.26812      .   S
    O149   C61       1.26803      .   S
    O145   C57       1.26803      .   S
    O173   C95       1.26529  1_545   S
    O137   C33       1.26508      .   S
    O171   C89       1.26505      .   S
    O175   C93       1.26505      .   S
    O169   C91       1.26499  1_545   S
    O143   C39       1.26501      .   S
    O141   C37       1.26500      .   S
    O139   C35       1.26491      .   S
    C63    C89       1.54515      .   S
    C63    O109      1.26514      .   S
    C67    C35       1.54486      .   S
    C67    O203      1.26499      .   S
    C71    C39       1.54559      .   S
    C71    O207      1.26499      .   S
    C65    C33       1.54548      .   S
    C65    O201      1.26499      .   S
    C69    C37       1.54547      .   S
    C69    O205      1.26499      .   S
    C57    C95       1.54527  1_445   S
    C57    O107      1.26495  1_545   S
    C61    C91       1.54562  1_545   S
    C61    O111      1.26495  1_545   S
    C59    C93       1.54508  1_455   S
    C59    O105      1.26500      .   S
    C35    O99       1.26876      .   S
    C89    O209      1.26804      .   S
    C95    O215      1.26795      .   S
    C93    O213      1.26804      .   S
    C91    O211      1.26806      .   S
    C37    O101      1.26801      .   S
    C39    O103      1.26799      .   S
    C33    O97       1.26787      .   S
    O109   Y21       2.36920      .   S
    O205   Y21       2.36852      .   S
    O207   Y23       2.36846      .   S
    O201   Y17       2.36758      .   S
    O203   Y19       2.36846      .   S
    O107   Y19       2.36871      .   S
    O105   Y17       2.36800      .   S
    O111   Y23       2.36870      .   S
    O215   Y19       2.39879  1_655   S
    O213   Y17       2.39770  1_655   S
    O209   Y21       2.39899      .   S
    O211   Y23       2.39896      .   S
    O97    Y17       2.39887      .   S
    O103   Y23       2.39885      .   S
    O99    Y19       2.39885      .   S
    O101   Y21       2.39884      .   S
    Y17    O221      2.36927  1_455   S
    Y17    O121      2.36966      .   S
    Y23    O219      2.36873      .   S
    Y23    O127      2.36866      .   S
    Y21    O217      2.36871      .   S
    Y21    O125      2.36859      .   S
    Y19    O223      2.36864  1_455   S
    Y19    O123      2.36865      .   S
    K1     O193      2.72649      .   S
    O193   C81       1.26863      .   S
    O195   C83       1.26702      .   S
    O199   C87       1.26803      .   S
    O197   C85       1.26799      .   S
    O119   C47       1.26809      .   S
    O117   C45       1.26806      .   S
    O115   C43       1.26808      .   S
    O113   C41       1.26807      .   S
    O96    K0        2.72667      .   S
    O97    K1        2.72726      .   S
    O98    K2        2.72701      .   S
    O99    K3        2.72699      .   S
    O100   K4        2.72697      .   S
    O101   K5        2.72710      .   S
    O102   K6        2.72697      .   S
    O103   K7        2.72703      .   S
    O112   K0        2.72719      .   S
    O112   Y16       2.39930      .   S
    O113   K1        2.72723      .   S
    O113   Y17       2.40042      .   S
    O114   K2        2.72724      .   S
    O114   Y18       2.39938      .   S
    O115   K3        2.72726      .   S
    O115   Y19       2.39941      .   S
    O116   K4        2.72722      .   S
    O116   Y20       2.39943      .   S
    O117   K5        2.72723      .   S
    O117   Y21       2.39945      .   S
    O118   K6        2.72723      .   S
    O118   Y22       2.40060      .   S
    O119   K7        2.72726      .   S
    O119   Y23       2.39941      .   S
    O128   K8        2.72711      .   S
    O128   Y28       2.39902  1_455   S
    O129   K9        2.72750      .   S
    O129   Y29       2.39901  1_455   S
    O130   K10       2.72705      .   S
    O130   Y30       2.39904  1_455   S
    O131   K11       2.72704      .   S
    O131   Y31       2.39904  1_455   S
    O132   K12       2.72711      .   S
    O132   Y24       2.39933      .   S
    O133   Y25       2.39933      .   S
    O134   K14       2.72705      .   S
    O134   Y26       2.39935      .   S
    O135   K15       2.72704      .   S
    O135   Y27       2.39934      .   S
    O144   K8        2.72713      .   S
    O145   K9        2.72712      .   S
    O146   K10       2.72712      .   S
    O147   K11       2.72713      .   S
    O148   K12       2.72711      .   S
    O149   K13       2.72710      .   S
    O150   K14       2.72712      .   S
    O151   K15       2.72711      .   S
    O160   K8        2.72711      .   S
    O161   K9        2.72717      .   S
    O162   K10       2.72716      .   S
    O163   K11       2.72731      .   S
    O164   K12       2.72719      .   S
    O165   K13       2.72721      .   S
    O166   K14       2.72722      .   S
    O167   K15       2.72728      .   S
    O176   Y24       2.39948      .   S
    O177   Y25       2.39944      .   S
    O178   Y26       2.39938      .   S
    O179   Y27       2.39949      .   S
    O180   Y28       2.39947      .   S
    O181   K13       2.72702      .   S
    O181   Y29       2.39945      .   S
    O182   Y30       2.40008      .   S
    O183   Y31       2.39949      .   S
    O192   K0        2.72741      .   S
    O192   Y20       2.39928      .   S
    O193   Y21       2.39929      .   S
    O194   K2        2.72721      .   S
    O194   Y22       2.39924      .   S
    O195   K3        2.72708      .   S
    O195   Y23       2.39926      .   S
    O196   K4        2.72714      .   S
    O196   Y16       2.39897  1_655   S
    O197   K5        2.72715      .   S
    O197   Y17       2.39896  1_655   S
    O198   K6        2.72720      .   S
    O198   Y18       2.39897  1_655   S
    O199   K7        2.72708      .   S
    O199   Y19       2.39895  1_655   S
    O208   K0        2.72719      .   S
    O209   K1        2.72716      .   S
    O210   K2        2.72717      .   S
    O211   K3        2.72715      .   S
    O212   K4        2.72718      .   S
    O213   K5        2.72716      .   S
    O214   K6        2.72717      .   S
    O215   K7        2.72715      .   S
