# CIF file generated by openbabel 2.4.90, see http://openbabel.sf.net
data_I
_chemical_name_common 'VESTA_phase_1'
_cell_length_a 12.906
_cell_length_b 14.615
_cell_length_c 15.125
_cell_angle_alpha 90.005
_cell_angle_beta 90.014
_cell_angle_gamma 89.976
_space_group_name_H-M_alt 'P 1'
_space_group_name_Hall 'P 1'
loop_
    _symmetry_equiv_pos_as_xyz
    x,y,z
loop_
    _atom_site_label
    _atom_site_type_symbol
    _atom_site_fract_x
    _atom_site_fract_y
    _atom_site_fract_z
    _atom_site_occupancy
    Ca0     Ca   0.43310   0.79656   0.46521   1.000
    Ca1     Ca   0.93263   0.79731   0.46586   1.000
    Ca2     Ca   0.31691   0.20174   0.96431   1.000
    Ca3     Ca   0.81679   0.20124   0.96631   1.000
    Ca4     Ca   0.06685   0.29762   0.03462   1.000
    Ca5     Ca   0.56678   0.29646   0.03482   1.000
    Ca6     Ca   0.18309   0.70184   0.53390   1.000
    Ca7     Ca   0.68276   0.70147   0.53559   1.000
    H8      H    0.37113   0.65021   0.74485   1.000
    H9      H    0.86991   0.65191   0.74503   1.000
    H10     H    0.38458   0.53392   0.86480   1.000
    H11     H    0.88182   0.53632   0.86576   1.000
    H12     H    0.48837   0.25843   0.71843   1.000
    H13     H    0.98635   0.25973   0.72165   1.000
    H14     H    0.54479   0.21875   0.56656   1.000
    H15     H    0.00000   0.21903   0.57041   1.000
    H16     H    0.55259   0.33923   0.45032   1.000
    H17     H    0.00000   0.33883   0.45354   1.000
    H18     H    0.50364   0.49851   0.48499   1.000
    H19     H    0.00000   0.49840   0.48699   1.000
    H20     H    0.37901   0.34712   0.24375   1.000
    H21     H    0.87931   0.34700   0.24561   1.000
    H22     H    0.36659   0.46289   0.36431   1.000
    H23     H    0.86622   0.46275   0.36613   1.000
    H24     H    0.26320   0.73941   0.21930   1.000
    H25     H    0.76138   0.73880   0.22118   1.000
    H26     H    0.20644   0.77989   0.06775   1.000
    H27     H    0.70462   0.77911   0.06953   1.000
    H28     H    0.19771   0.65991   0.95104   1.000
    H29     H    0.69708   0.65921   0.95270   1.000
    H30     H    0.24618   0.50036   0.98498   1.000
    H31     H    0.74651   0.49985   0.98661   1.000
    H32     H    0.13003   0.15247   0.75563   1.000
    H33     H    0.62877   0.15013   0.75521   1.000
    H34     H    0.11774   0.03709   0.63472   1.000
    H35     H    0.61541   0.03382   0.63520   1.000
    H36     H    0.01274   0.76058   0.77847   1.000
    H37     H    0.51160   0.75841   0.78160   1.000
    H38     H    0.95559   0.71965   0.92980   1.000
    H39     H    0.45522   0.71879   0.93348   1.000
    H40     H    0.94698   0.83920   0.04693   1.000
    H41     H    0.44743   0.83930   0.04971   1.000
    H42     H    0.99606   0.99874   0.01371   1.000
    H43     H    0.49629   0.99855   0.01501   1.000
    H44     H    0.12054   0.84738   0.25448   1.000
    H45     H    0.62083   0.84719   0.25635   1.000
    H46     H    0.13389   0.96294   0.13382   1.000
    H47     H    0.63329   0.96299   0.13584   1.000
    H48     H    0.23889   0.23904   0.27859   1.000
    H49     H    0.73676   0.23936   0.28090   1.000
    H50     H    0.29566   0.27940   0.43021   1.000
    H51     H    0.79366   0.27974   0.43248   1.000
    H52     H    0.30314   0.15958   0.54714   1.000
    H53     H    0.80240   0.15971   0.54916   1.000
    H54     H    0.25361   0.00027   0.51332   1.000
    H55     H    0.75384   0.00023   0.51519   1.000
    C56     C    0.43261   0.63922   0.58093   1.000
    C57     C    0.93295   0.63977   0.58160   1.000
    C58     C    0.43265   0.56200   0.64480   1.000
    C59     C    0.93231   0.56297   0.64593   1.000
    C60     C    0.39918   0.58156   0.72999   1.000
    C61     C    0.89790   0.58310   0.73074   1.000
    C62     C    0.40504   0.51558   0.79722   1.000
    C63     C    0.90284   0.51753   0.79837   1.000
    C64     C    0.43625   0.42700   0.77849   1.000
    C65     C    0.93410   0.42879   0.78037   1.000
    C66     C    0.46479   0.40213   0.69035   1.000
    C67     C    0.96344   0.40331   0.69260   1.000
    C68     C    0.46744   0.47164   0.62269   1.000
    C69     C    0.96698   0.47240   0.62458   1.000
    C70     C    0.49305   0.31105   0.66768   1.000
    C71     C    0.99166   0.31204   0.67064   1.000
    C72     C    0.52362   0.28898   0.58300   1.000
    C73     C    0.00000   0.28941   0.58631   1.000
    C74     C    0.52756   0.35727   0.51696   1.000
    C75     C    0.00000   0.35730   0.51991   1.000
    C76     C    0.50000   0.44633   0.53621   1.000
    C77     C    0.00000   0.44652   0.53847   1.000
    C78     C    0.43921   0.35932   0.85362   1.000
    C79     C    0.93725   0.36179   0.85600   1.000
    C80     C    0.31681   0.35920   0.07993   1.000
    C81     C    0.81697   0.35877   0.08181   1.000
    C82     C    0.31732   0.43599   0.14427   1.000
    C83     C    0.81748   0.43567   0.14604   1.000
    C84     C    0.35116   0.41593   0.22927   1.000
    C85     C    0.85129   0.41574   0.23107   1.000
    C86     C    0.34589   0.48161   0.29682   1.000
    C87     C    0.84560   0.48142   0.29861   1.000
    C88     C    0.31484   0.57036   0.27860   1.000
    C89     C    0.81411   0.57003   0.28035   1.000
    C90     C    0.28607   0.59574   0.19064   1.000
    C91     C    0.78534   0.59529   0.19237   1.000
    C92     C    0.28288   0.52656   0.12267   1.000
    C93     C    0.78268   0.52613   0.12439   1.000
    C94     C    0.25811   0.68700   0.16839   1.000
    C95     C    0.75680   0.68643   0.17017   1.000
    C96     C    0.22732   0.70952   0.08387   1.000
    C97     C    0.72603   0.70885   0.08561   1.000
    C98     C    0.22288   0.64153   0.01754   1.000
    C99     C    0.72221   0.64089   0.01922   1.000
    C100    C    0.25015   0.55232   0.03636   1.000
    C101    C    0.75001   0.55180   0.03804   1.000
    C102    C    0.31188   0.63762   0.35412   1.000
    C103    C    0.81031   0.63723   0.35580   1.000
    C104    C    0.06698   0.14026   0.91893   1.000
    C105    C    0.56716   0.13917   0.91913   1.000
    C106    C    0.06772   0.06349   0.85465   1.000
    C107    C    0.56720   0.06196   0.85523   1.000
    C108    C    0.10200   0.08367   0.76982   1.000
    C109    C    0.60072   0.08149   0.77006   1.000
    C110    C    0.09676   0.01822   0.70209   1.000
    C111    C    0.59492   0.01550   0.70282   1.000
    C112    C    0.06519   0.92960   0.72003   1.000
    C113    C    0.56372   0.92694   0.72150   1.000
    C114    C    0.03608   0.90404   0.80781   1.000
    C115    C    0.53515   0.90210   0.80960   1.000
    C116    C    0.03295   0.97298   0.87590   1.000
    C117    C    0.53247   0.97162   0.87734   1.000
    C118    C    0.00776   0.81279   0.82962   1.000
    C119    C    0.50692   0.81104   0.83235   1.000
    C120    C    0.97673   0.79002   0.91000   1.000
    C121    C    0.47636   0.78901   0.91700   1.000
    C122    C    0.97235   0.85778   0.98055   1.000
    C123    C    0.47243   0.85731   0.98308   1.000
    C124    C    0.99993   0.94698   0.96212   1.000
    C125    C    0.49994   0.94635   0.96382   1.000
    C126    C    0.06139   0.86259   0.64438   1.000
    C127    C    0.56076   0.85926   0.64640   1.000
    C128    C    0.18282   0.85941   0.41837   1.000
    C129    C    0.68296   0.85914   0.42014   1.000
    C130    C    0.18254   0.93610   0.35394   1.000
    C131    C    0.68251   0.93598   0.35586   1.000
    C132    C    0.14872   0.91607   0.26890   1.000
    C133    C    0.64868   0.91597   0.27085   1.000
    C134    C    0.15453   0.98164   0.20133   1.000
    C135    C    0.65396   0.98167   0.20334   1.000
    C136    C    0.18610   0.07023   0.21950   1.000
    C137    C    0.68500   0.07038   0.22162   1.000
    C138    C    0.21487   0.09558   0.30740   1.000
    C139    C    0.71382   0.09571   0.30958   1.000
    C140    C    0.21747   0.02650   0.37549   1.000
    C141    C    0.71700   0.02651   0.37751   1.000
    C142    C    0.24345   0.18670   0.32962   1.000
    C143    C    0.74184   0.18694   0.33183   1.000
    C144    C    0.27423   0.20915   0.41416   1.000
    C145    C    0.77271   0.20940   0.41635   1.000
    C146    C    0.27800   0.14125   0.48060   1.000
    C147    C    0.77716   0.14139   0.48265   1.000
    C148    C    0.25016   0.05218   0.46180   1.000
    C149    C    0.74982   0.05221   0.46381   1.000
    C150    C    0.18980   0.13736   0.14394   1.000
    C151    C    0.68793   0.13760   0.14609   1.000
    O152    O    0.35599   0.69509   0.58088   1.000
    O153    O    0.85652   0.69579   0.58107   1.000
    O154    O    0.00980   0.65226   0.52934   1.000
    O155    O    0.50934   0.65211   0.52860   1.000
    O156    O    0.38164   0.28886   0.84841   1.000
    O157    O    0.87983   0.29119   0.85180   1.000
    O158    O    0.99658   0.38227   0.92024   1.000
    O159    O    0.49802   0.37900   0.91839   1.000
    O160    O    0.39285   0.30272   0.07997   1.000
    O161    O    0.89331   0.30259   0.08139   1.000
    O162    O    0.24035   0.34728   0.02705   1.000
    O163    O    0.74004   0.34647   0.02953   1.000
    O164    O    0.36969   0.70796   0.34956   1.000
    O165    O    0.86784   0.70779   0.35180   1.000
    O166    O    0.25260   0.61769   0.41849   1.000
    O167    O    0.75048   0.61710   0.41976   1.000
    O168    O    0.14302   0.19667   0.91911   1.000
    O169    O    0.64380   0.19495   0.91930   1.000
    O170    O    0.49029   0.15215   0.97130   1.000
    O171    O    0.99034   0.15238   0.97149   1.000
    O172    O    0.12002   0.79268   0.64785   1.000
    O173    O    0.61834   0.78876   0.65158   1.000
    O174    O    0.50197   0.87900   0.58163   1.000
    O175    O    0.00000   0.88233   0.58122   1.000
    O176    O    0.10606   0.80376   0.41920   1.000
    O177    O    0.60692   0.80272   0.41999   1.000
    O178    O    0.25990   0.84676   0.47040   1.000
    O179    O    0.75938   0.84711   0.47304   1.000
    O180    O    0.13240   0.20804   0.14820   1.000
    O181    O    0.63027   0.20808   0.15069   1.000
    O182    O    0.24928   0.11706   0.07986   1.000
    O183    O    0.74704   0.11748   0.08165   1.000
loop_
    _geom_bond_atom_site_label_1
    _geom_bond_atom_site_label_2
    _geom_bond_distance
    _geom_bond_site_symmetry_2
    _ccdc_geom_bond_type
    H42    C124      1.08784  1_554   S
    H43    C125      1.08792  1_554   S
    C98    C100      1.37999      .   S
    C98    C96       1.41315      .   S
    C98    H28       1.09046  1_554   S
    C99    C101      1.38010      .   S
    C99    C97       1.41319      .   S
    C99    H29       1.09040  1_554   S
    O162   C80       1.28203      .   S
    O163   C81       1.28175      .   S
    Ca4    O180      2.31943      .   S
    Ca4    O158      2.31182  1_454   S
    Ca5    O181      2.32590      .   S
    Ca5    O159      2.31146  1_554   S
    C100   C92       1.42269      .   S
    C100   H30       1.08777  1_554   S
    C101   C93       1.42268      .   S
    C101   H31       1.08786  1_554   S
    H40    C122      1.09050  1_554   S
    H41    C123      1.09057  1_554   S
    H26    C96       1.09066      .   S
    H27    C97       1.09069      .   S
    O182   C150      1.27152      .   S
    O182   Ca2       2.31300  1_554   S
    C80    O160      1.28213      .   S
    C80    C82       1.48535      .   S
    O161   C81       1.28227      .   S
    O183   C151      1.27225      .   S
    O183   Ca3       2.31392  1_554   S
    C81    C83       1.48556      .   S
    C96    C94       1.37847      .   S
    C97    C95       1.37862      .   S
    C92    C82       1.43393      .   S
    C92    C90       1.44241      .   S
    C93    C83       1.43394      .   S
    C93    C91       1.44224      .   S
    H46    C134      1.09002      .   S
    H47    C135      1.08992      .   S
    C150   O180      1.27251      .   S
    C150   C136      1.50711      .   S
    C82    C84       1.38896      .   S
    C83    C85       1.38883      .   S
    C151   O181      1.27236      .   S
    C151   C137      1.50729      .   S
    C94    C90       1.42201      .   S
    C94    H24       1.08804      .   S
    C95    C91       1.42196      .   S
    C95    H25       1.08840      .   S
    C90    C88       1.43010      .   S
    C91    C89       1.42990      .   S
    C134   C136      1.38500  1_565   S
    C134   C132      1.40308      .   S
    C135   C137      1.38506  1_565   S
    C135   C133      1.40334      .   S
    C136   C138      1.42918      .   S
    C137   C139      1.43006      .   S
    C84    H20       1.09002      .   S
    C84    C86       1.40348      .   S
    C85    H21       1.09003      .   S
    C85    C87       1.40359      .   S
    H44    C132      1.08993      .   S
    H45    C133      1.09000      .   S
    C132   C130      1.38938      .   S
    C133   C131      1.38894      .   S
    H48    C142      1.08832      .   S
    C88    C86       1.38511      .   S
    C88    C102      1.50745      .   S
    C89    C87       1.38504      .   S
    C89    C103      1.50634      .   S
    H49    C143      1.08843      .   S
    C86    H22       1.08998      .   S
    C87    H23       1.08997      .   S
    C138   C142      1.42215      .   S
    C138   C140      1.44263      .   S
    C139   C143      1.42200      .   S
    C139   C141      1.44238      .   S
    C142   C144      1.37850      .   S
    C143   C145      1.37854      .   S
    O164   C102      1.27237      .   S
    O164   Ca0       2.32508      .   S
    O165   C103      1.27247      .   S
    O165   Ca1       2.32099      .   S
    C130   C140      1.43366  1_565   S
    C130   C128      1.48531      .   S
    C102   O166      1.27224      .   S
    C103   O167      1.27246      .   S
    C131   C141      1.43397  1_565   S
    C131   C129      1.48539      .   S
    C140   C148      1.42222      .   S
    C141   C149      1.42272      .   S
    C144   H50       1.09067      .   S
    C144   C146      1.41324      .   S
    C145   H51       1.09066      .   S
    C145   C147      1.41316      .   S
    C128   O176      1.28210      .   S
    C128   O178      1.28162      .   S
    O166   Ca6       2.31600      .   S
    O167   Ca7       2.31369      .   S
    O177   C129      1.28215      .   S
    C129   O179      1.28191      .   S
    H16    C74       1.09081      .   S
    H17    C75       1.03950      .   S
    C148   C146      1.38012      .   S
    C148   H54       1.08851      .   S
    C149   C147      1.38004      .   S
    C149   H55       1.08804      .   S
    Ca0    O174      2.31125      .   S
    Ca1    O175      2.31169  1_655   S
    C146   H52       1.09078      .   S
    C147   H53       1.09070      .   S
    H18    C76       1.08818      .   S
    H19    C77       1.08681      .   S
    C74    C76       1.38020      .   S
    C74    C72       1.41311      .   S
    C75    C77       1.33382      .   S
    C75    C73       1.41183      .   S
    O155   C56       1.28190      .   S
    O154   C57       1.28154  1_455   S
    Ca6    O172      2.32271      .   S
    Ca7    O173      2.32298      .   S
    C76    C68       1.42277      .   S
    C77    C69       1.42161  1_455   S
    H14    C72       1.09072      .   S
    H15    C73       1.05628      .   S
    O152   C56       1.28211      .   S
    C56    C58       1.48566      .   S
    O153   C57       1.28177      .   S
    O175   C126      1.27400      .   S
    C57    C59       1.48550      .   S
    O174   C127      1.27210      .   S
    C72    C70       1.37850      .   S
    C73    C71       1.32205  1_455   S
    C68    C58       1.43421      .   S
    C68    C66       1.44241      .   S
    C69    C59       1.43390      .   S
    C69    C67       1.44234      .   S
    H34    C110      1.08992      .   S
    H35    C111      1.08988      .   S
    C126   O172      1.27227      .   S
    C126   C112      1.50683      .   S
    C58    C60       1.38876      .   S
    C59    C61       1.38899      .   S
    C127   O173      1.27242      .   S
    C127   C113      1.50668      .   S
    C70    C66       1.42199      .   S
    C70    H12       1.08835      .   S
    C71    C67       1.42196      .   S
    C71    H13       1.08846      .   S
    C66    C64       1.43004      .   S
    C67    C65       1.42982      .   S
    C110   C112      1.38484  1_545   S
    C110   C108      1.40317      .   S
    C111   C113      1.38483  1_545   S
    C111   C109      1.40354      .   S
    C112   C114      1.42964      .   S
    C113   C115      1.42959      .   S
    C60    H8        1.08998      .   S
    C60    C62       1.40339      .   S
    C61    H9        1.09001      .   S
    C61    C63       1.40325      .   S
    H33    C109      1.09000      .   S
    H32    C108      1.09000      .   S
    C108   C106      1.38904      .   S
    C109   C107      1.38871      .   S
    H36    C118      1.08844      .   S
    C64    C62       1.38498      .   S
    C64    C78       1.50709      .   S
    C65    C63       1.38496      .   S
    C65    C79       1.50638      .   S
    H37    C119      1.08837      .   S
    C62    H10       1.08919      .   S
    C63    H11       1.08996      .   S
    C114   C118      1.42189      .   S
    C114   C116      1.44123      .   S
    C115   C119      1.42227      .   S
    C115   C117      1.44326      .   S
    C118   C120      1.32272  1_455   S
    C119   C121      1.37803      .   S
    O156   C78       1.27246      .   S
    O156   Ca2       2.32254      .   S
    O157   C79       1.27216      .   S
    O157   Ca3       2.32204      .   S
    C78    O159      1.27211      .   S
    C106   C116      1.43354  1_545   S
    C106   C104      1.48458      .   S
    C107   C117      1.43409  1_545   S
    C107   C105      1.48569      .   S
    C79    O158      1.27268      .   S
    C116   C124      1.42372  1_455   S
    C117   C125      1.42270      .   S
    C120   H38       1.10550      .   S
    C120   C122      1.45680      .   S
    C121   H39       1.09084      .   S
    C121   C123      1.41350      .   S
    C104   O168      1.28202      .   S
    C104   O171      1.28139  1_455   S
    C105   O169      1.28210      .   S
    C105   O170      1.28176      .   S
    C124   C122      1.38015      .   S
    C125   C123      1.38016      .   S
    O152   Ca0       2.50062      .   S
    O152   Ca6       2.34365      .   S
    O153   Ca1       2.49105      .   S
    O153   Ca7       2.34695      .   S
    O154   Ca1       2.53097  1_455   S
    O154   Ca6       2.35225      .   S
    O155   Ca0       2.51851      .   S
    O155   Ca7       2.35418      .   S
    O160   Ca2       2.48970  1_554   S
    O160   Ca5       2.34831      .   S
    O161   Ca3       2.48970  1_554   S
    O161   Ca4       2.35011  1_655   S
    O162   Ca2       2.52974  1_554   S
    O162   Ca4       2.35688      .   S
    O163   Ca3       2.52953  1_554   S
    O163   Ca5       2.35420      .   S
    O168   Ca2       2.34707      .   S
    O168   Ca4       2.48892  1_556   S
    O169   Ca3       2.34473      .   S
    O169   Ca5       2.49814  1_556   S
    O170   Ca2       2.35416      .   S
    O170   Ca5       2.51928  1_556   S
    O171   Ca3       2.35196      .   S
    O171   Ca4       2.52867  1_656   S
    O176   Ca1       2.34900  1_455   S
    O176   Ca6       2.49302      .   S
    O177   Ca0       2.34716      .   S
    O177   Ca7       2.49065      .   S
    O178   Ca0       2.35367      .   S
    O178   Ca6       2.52855      .   S
    O179   Ca1       2.35376      .   S
    O179   Ca7       2.53109      .   S
