# CIF file generated by openbabel 2.4.90, see http://openbabel.sf.net
data_I
_chemical_name_common ''
_cell_length_a 13.075
_cell_length_b 13.975
_cell_length_c 16.924
_cell_angle_alpha 90.001
_cell_angle_beta 90
_cell_angle_gamma 89.9
_space_group_name_H-M_alt 'P 1'
_space_group_name_Hall 'P 1'
loop_
    _symmetry_equiv_pos_as_xyz
    x,y,z
loop_
    _atom_site_label
    _atom_site_type_symbol
    _atom_site_fract_x
    _atom_site_fract_y
    _atom_site_fract_z
    _atom_site_occupancy
    N0      N    0.29400   0.47980   0.08217   1.000
    N1      N    0.79431   0.01899   0.08197   1.000
    N2      N    0.51593   0.78535   0.00259   1.000
    N3      N    0.01767   0.71465   0.00294   1.000
    N4      N    0.55402   0.46421   0.23116   1.000
    N5      N    0.44600   0.03579   0.73115   1.000
    N6      N    0.20570   0.98101   0.91800   1.000
    N7      N    0.79433   0.51897   0.41802   1.000
    N8      N    0.70600   0.52020   0.91783   1.000
    N9      N    0.51589   0.28534   0.49739   1.000
    N10     N    0.98233   0.28533   0.99705   1.000
    N11     N    0.20566   0.48105   0.58203   1.000
    N12     N    0.94618   0.46504   0.73086   1.000
    N13     N    0.94618   0.96501   0.76913   1.000
    N14     N    0.29397   0.97976   0.41785   1.000
    N15     N    0.70599   0.02018   0.58214   1.000
    N16     N    0.98232   0.78532   0.50292   1.000
    N17     N    0.55399   0.96421   0.26885   1.000
    N18     N    0.48402   0.71464   0.50258   1.000
    N19     N    0.48407   0.21466   0.99742   1.000
    N20     N    0.01764   0.21465   0.49708   1.000
    N21     N    0.05235   0.03495   0.23085   1.000
    N22     N    0.44600   0.53579   0.76886   1.000
    N23     N    0.05235   0.53493   0.26915   1.000
    Zr24    Zr   0.52377   0.90777   0.42947   1.000
    O25     O    0.51125   0.84149   0.45125   1.000
    O26     O    0.58268   0.94098   0.47761   1.000
    O27     O    0.44910   0.93348   0.42861   1.000
    Zr28    Zr   0.42734   0.51938   0.59612   1.000
    O29     O    0.43846   0.53408   0.65045   1.000
    O30     O    0.44766   0.58115   0.56291   1.000
    O31     O    0.45670   0.44522   0.56668   1.000
    O32     O    0.35275   0.50990   0.58987   1.000
    Zr33    Zr   0.52378   0.40778   0.07052   1.000
    O34     O    0.58269   0.44099   0.02238   1.000
    O35     O    0.51128   0.34150   0.04875   1.000
    O36     O    0.44912   0.43350   0.07139   1.000
    Zr37    Zr   0.92844   0.98238   0.59635   1.000
    O38     O    0.85359   0.99171   0.59004   1.000
    O39     O    0.94781   0.91995   0.56319   1.000
    O40     O    0.95801   0.05593   0.56674   1.000
    O41     O    0.93899   0.96725   0.65067   1.000
    Zr42    Zr   0.57265   0.48062   0.40391   1.000
    O43     O    0.54327   0.55477   0.43333   1.000
    O44     O    0.55231   0.41884   0.43710   1.000
    O45     O    0.56155   0.46592   0.34958   1.000
    O46     O    0.64724   0.49011   0.41017   1.000
    Zr47    Zr   0.97765   0.90768   0.92959   1.000
    O48     O    0.05172   0.93383   0.92877   1.000
    O49     O    0.99036   0.84146   0.95144   1.000
    O50     O    0.91833   0.94054   0.97757   1.000
    Zr51    Zr   0.97764   0.40768   0.57044   1.000
    O52     O    0.99034   0.34145   0.54859   1.000
    O53     O    0.91833   0.44053   0.52244   1.000
    O54     O    0.05170   0.43384   0.57125   1.000
    Zr55    Zr   0.02236   0.09231   0.07042   1.000
    O56     O    0.00965   0.15853   0.04852   1.000
    O57     O    0.94829   0.06616   0.07122   1.000
    O58     O    0.08167   0.05945   0.02241   1.000
    Zr59    Zr   0.02236   0.59230   0.42958   1.000
    O60     O    0.00964   0.65852   0.45143   1.000
    O61     O    0.08166   0.55946   0.47760   1.000
    O62     O    0.94830   0.56615   0.42878   1.000
    Zr63    Zr   0.07154   0.01758   0.40368   1.000
    O64     O    0.06063   0.03271   0.34934   1.000
    O65     O    0.05216   0.08001   0.43682   1.000
    O66     O    0.04195   0.94404   0.43328   1.000
    O67     O    0.14638   0.00824   0.40998   1.000
    Zr68    Zr   0.42737   0.01938   0.90389   1.000
    O69     O    0.35278   0.00988   0.91015   1.000
    O70     O    0.44769   0.08116   0.93709   1.000
    O71     O    0.43847   0.03408   0.84956   1.000
    O72     O    0.45674   0.94523   0.93332   1.000
    Zr73    Zr   0.92844   0.48241   0.90369   1.000
    O74     O    0.93899   0.46728   0.84935   1.000
    O75     O    0.94782   0.41997   0.93683   1.000
    O76     O    0.85360   0.49174   0.90998   1.000
    O77     O    0.95803   0.55595   0.93330   1.000
    Zr78    Zr   0.07156   0.51758   0.09632   1.000
    O79     O    0.06064   0.53270   0.15066   1.000
    O80     O    0.04197   0.44404   0.06671   1.000
    O81     O    0.14640   0.50825   0.09002   1.000
    O82     O    0.05218   0.58002   0.06318   1.000
    Zr83    Zr   0.57264   0.98063   0.09611   1.000
    O84     O    0.56153   0.96593   0.15044   1.000
    O85     O    0.54327   0.05479   0.06669   1.000
    O86     O    0.64722   0.99013   0.08984   1.000
    O87     O    0.55231   0.91886   0.06291   1.000
    Zr88    Zr   0.47621   0.09222   0.57051   1.000
    O89     O    0.48870   0.15850   0.54873   1.000
    O90     O    0.55087   0.06649   0.57138   1.000
    O91     O    0.41730   0.05899   0.52237   1.000
    Zr92    Zr   0.47622   0.59223   0.92900   1.000
    O93     O    0.48872   0.65851   0.95096   1.000
    O94     O    0.41731   0.55901   0.97733   1.000
    O95     O    0.55088   0.56650   0.92831   1.000
    O96     O    0.96702   0.92684   0.87746   1.000
    O97     O    0.46606   0.07334   0.62270   1.000
    O98     O    0.46606   0.57335   0.87700   1.000
    O99     O    0.03206   0.57312   0.37747   1.000
    O100    O    0.53395   0.42666   0.12271   1.000
    O101    O    0.03206   0.07313   0.12254   1.000
    O102    O    0.53393   0.92665   0.37729   1.000
    O103    O    0.96702   0.42685   0.62255   1.000
loop_
    _geom_bond_atom_site_label_1
    _geom_bond_atom_site_label_2
    _geom_bond_distance
    _geom_bond_site_symmetry_2
    _ccdc_geom_bond_type
    Zr24   O25       1.01051      .   S
    N18    O25       2.00650      .   S
    Zr24   O26       1.21400      .   S
    N15    O26       2.63826  1_545   S
    Zr24   O27       1.03978      .   S
    N14    O27       2.13570      .   S
    Zr28   O29       0.95328      .   S
    N22    O29       2.00658      .   S
    Zr28   O30       1.06415      .   S
    N18    O30       2.17995      .   S
    Zr28   O31       1.21167      .   S
    N9     O31       2.63817      .   S
    Zr28   O32       0.99014      .   S
    N11    O32       1.97021      .   S
    Zr33   O34       1.21405      .   S
    N8     O34       2.63848  1_556   S
    Zr33   O35       1.01044      .   S
    N19    O35       2.00635  1_556   S
    Zr33   O36       1.03975      .   S
    N0     O36       2.13566      .   S
    Zr37   O38       0.99282      .   S
    N15    O38       1.97428  1_545   S
    Zr37   O39       1.06744      .   S
    N16    O39       2.18652      .   S
    Zr37   O40       1.20774  1_565   S
    N20    O40       2.63128  1_455   S
    Zr37   O41       0.95338      .   S
    N13    O41       2.00718      .   S
    Zr42   O43       1.21159      .   S
    N18    O43       2.63798      .   S
    Zr42   O44       1.06411      .   S
    N9     O44       2.17988      .   S
    Zr42   O45       0.95335      .   S
    N4     O45       2.00672      .   S
    Zr42   O46       0.99013      .   S
    N7     O46       1.97026      .   S
    Zr47   O48       1.03584  1_655   S
    N6     O48       2.12736      .   S
    Zr47   O49       1.01012      .   S
    N3     O49       2.00628  1_454   S
    Zr47   O50       1.21263      .   S
    N1     O50       2.63570  1_544   S
    Zr51   O52       1.01011      .   S
    N20    O52       2.00630  1_455   S
    Zr51   O53       1.21279      .   S
    N7     O53       2.63571      .   S
    Zr51   O54       1.03579  1_655   S
    N11    O54       2.12728      .   S
    Zr55   O56       1.01037      .   S
    N10    O56       2.00613  1_656   S
    Zr55   O57       1.03582  1_455   S
    N1     O57       2.12732      .   S
    Zr55   O58       1.21287      .   S
    N6     O58       2.63583  1_566   S
    Zr59   O60       1.01007      .   S
    N16    O60       2.00619  1_655   S
    Zr59   O61       1.21281      .   S
    N11    O61       2.63572      .   S
    Zr59   O62       1.03579  1_455   S
    N7     O62       2.12725      .   S
    Zr63   O64       0.95430      .   S
    N21    O64       2.00855      .   S
    Zr63   O65       1.06733      .   S
    N20    O65       2.18652      .   S
    Zr63   O66       1.20767  1_545   S
    N16    O66       2.63115  1_655   S
    Zr63   O67       0.99274      .   S
    N14    O67       1.97417  1_565   S
    Zr68   O69       0.99013      .   S
    N6     O69       1.97021  1_565   S
    Zr68   O70       1.06417      .   S
    N19    O70       2.17999      .   S
    Zr68   O71       0.95330      .   S
    N5     O71       2.00662      .   S
    Zr68   O72       1.21164  1_545   S
    N2     O72       2.63802  1_554   S
    Zr73   O74       0.95367      .   S
    N12    O74       2.00768      .   S
    Zr73   O75       1.06735      .   S
    N10    O75       2.18630      .   S
    Zr73   O76       0.99274      .   S
    N8     O76       1.97417      .   S
    Zr73   O77       1.20763      .   S
    N3     O77       2.63103  1_454   S
    Zr78   O79       0.95430      .   S
    N23    O79       2.00855      .   S
    Zr78   O80       1.20766      .   S
    N10    O80       2.63118  1_656   S
    Zr78   O81       0.99277      .   S
    N0     O81       1.97417      .   S
    Zr78   O82       1.06739      .   S
    N3     O82       2.18642      .   S
    Zr83   O84       0.95328      .   S
    N17    O84       2.00658      .   S
    Zr83   O85       1.21161  1_565   S
    N19    O85       2.63797  1_556   S
    Zr83   O86       0.99014      .   S
    N1     O86       1.97022  1_545   S
    Zr83   O87       1.06418      .   S
    N2     O87       2.18001      .   S
    Zr88   O89       1.01046      .   S
    N9     O89       2.00645      .   S
    Zr88   O90       1.03977      .   S
    N15    O90       2.13566      .   S
    Zr88   O91       1.21412      .   S
    N14    O91       2.63840  1_565   S
    Zr92   O93       1.01160      .   S
    N2     O93       2.00862  1_554   S
    Zr92   O94       1.21614      .   S
    N0     O94       2.64188  1_554   S
    Zr92   O95       1.03972      .   S
    N8     O95       2.13525      .   S
    N13    O96       1.92860      .   S
    Zr47   O96       0.93233      .   S
    N5     O97       1.92700      .   S
    Zr88   O97       0.93138      .   S
    N22    O98       1.92201      .   S
    Zr92   O98       0.92839      .   S
    Zr59   O99       0.93042      .   S
    N23    O99       1.92739      .   S
    Zr33   O100      0.93138      .   S
    N4     O100      1.92702      .   S
    N21    O101      1.92737      .   S
    Zr55   O101      0.93043      .   S
    Zr24   O102      0.93131      .   S
    N17    O102      1.92689      .   S
    N12    O103      1.92829      .   S
    Zr51   O103      0.93212      .   S
