# CIF file generated by openbabel 2.4.90, see http://openbabel.sf.net
data_I
_chemical_name_common ''
_cell_length_a 13.075
_cell_length_b 13.975
_cell_length_c 16.924
_cell_angle_alpha 90.001
_cell_angle_beta 90
_cell_angle_gamma 89.9
_space_group_name_H-M_alt 'P 1'
_space_group_name_Hall 'P 1'
loop_
    _symmetry_equiv_pos_as_xyz
    x,y,z
loop_
    _atom_site_label
    _atom_site_type_symbol
    _atom_site_fract_x
    _atom_site_fract_y
    _atom_site_fract_z
    _atom_site_occupancy
    C0      C    0.97764   0.40768   0.57044   1.000
    C1      C    0.92844   0.48241   0.90369   1.000
    C2      C    0.02236   0.09231   0.07042   1.000
    C3      C    0.07154   0.01758   0.40368   1.000
    C4      C    0.47622   0.59223   0.92900   1.000
    C5      C    0.42734   0.51938   0.59612   1.000
    C6      C    0.52377   0.90777   0.42947   1.000
    C7      C    0.57264   0.98063   0.09611   1.000
    C8      C    0.02236   0.59230   0.42958   1.000
    C9      C    0.07156   0.51758   0.09632   1.000
    C10     C    0.97765   0.90768   0.92959   1.000
    C11     C    0.92844   0.98238   0.59635   1.000
    C12     C    0.52378   0.40778   0.07052   1.000
    C13     C    0.57265   0.48062   0.40391   1.000
    C14     C    0.47621   0.09222   0.57051   1.000
    C15     C    0.42737   0.01938   0.90389   1.000
    C16     C    0.94564   0.20038   0.65110   1.000
    C17     C    0.73891   0.35896   0.50487   1.000
    C18     C    0.06057   0.22748   0.35845   1.000
    C19     C    0.06717   0.33682   0.40548   1.000
    C20     C    0.72482   0.61254   0.31690   1.000
    C21     C    0.84813   0.65168   0.33497   1.000
    C22     C    0.05437   0.29958   0.15107   1.000
    C23     C    0.26109   0.14104   0.00480   1.000
    C24     C    0.93936   0.27252   0.85846   1.000
    C25     C    0.93279   0.16317   0.90548   1.000
    C26     C    0.27524   0.88743   0.81698   1.000
    C27     C    0.15193   0.84827   0.83497   1.000
    C28     C    0.44295   0.80041   0.84893   1.000
    C29     C    0.23769   0.63964   0.99540   1.000
    C30     C    0.55885   0.77176   0.14116   1.000
    C31     C    0.56608   0.66276   0.09371   1.000
    C32     C    0.22445   0.38589   0.18268   1.000
    C33     C    0.34829   0.34737   0.16559   1.000
    C34     C    0.55719   0.69959   0.34897   1.000
    C35     C    0.76225   0.86027   0.49542   1.000
    C36     C    0.44093   0.72824   0.64112   1.000
    C37     C    0.43376   0.83723   0.59367   1.000
    C38     C    0.77555   0.11410   0.68265   1.000
    C39     C    0.65173   0.15266   0.66550   1.000
    C40     C    0.05427   0.79959   0.34890   1.000
    C41     C    0.26104   0.64110   0.49523   1.000
    C42     C    0.93942   0.77248   0.64157   1.000
    C43     C    0.93282   0.66314   0.59453   1.000
    C44     C    0.27519   0.38749   0.68310   1.000
    C45     C    0.15189   0.34833   0.66510   1.000
    C46     C    0.94562   0.70041   0.84895   1.000
    C47     C    0.73891   0.85896   0.99517   1.000
    C48     C    0.06066   0.72747   0.14156   1.000
    C49     C    0.06722   0.83682   0.09454   1.000
    C50     C    0.72478   0.11256   0.18303   1.000
    C51     C    0.84808   0.15171   0.16504   1.000
    C52     C    0.55705   0.19959   0.15107   1.000
    C53     C    0.76230   0.36036   0.00463   1.000
    C54     C    0.44114   0.22825   0.85885   1.000
    C55     C    0.43391   0.33726   0.90630   1.000
    C56     C    0.77555   0.61409   0.81733   1.000
    C57     C    0.65172   0.65262   0.83442   1.000
    C58     C    0.44270   0.30039   0.65101   1.000
    C59     C    0.23768   0.13964   0.50462   1.000
    C60     C    0.55899   0.27176   0.35887   1.000
    C61     C    0.56614   0.16276   0.40630   1.000
    C62     C    0.22442   0.88584   0.31736   1.000
    C63     C    0.34824   0.84730   0.33446   1.000
    C64     C    0.96706   0.41648   0.74202   1.000
    C65     C    0.92393   0.51586   0.71929   1.000
    C66     C    0.03108   0.21914   0.47468   1.000
    C67     C    0.97324   0.19117   0.59133   1.000
    C68     C    0.79830   0.54685   0.40697   1.000
    C69     C    0.77434   0.42095   0.47779   1.000
    C70     C    0.03294   0.08351   0.24200   1.000
    C71     C    0.07606   0.98412   0.21927   1.000
    C72     C    0.96889   0.28084   0.97468   1.000
    C73     C    0.02676   0.30880   0.09130   1.000
    C74     C    0.20172   0.95312   0.90690   1.000
    C75     C    0.22567   0.07905   0.97778   1.000
    C76     C    0.46784   0.58400   0.75785   1.000
    C77     C    0.42277   0.48542   0.78037   1.000
    C78     C    0.52953   0.78070   0.02489   1.000
    C79     C    0.47096   0.80935   0.90861   1.000
    C80     C    0.29831   0.45187   0.09317   1.000
    C81     C    0.27353   0.57775   0.02246   1.000
    C82     C    0.53215   0.91601   0.25784   1.000
    C83     C    0.57723   0.01458   0.28036   1.000
    C84     C    0.47038   0.71929   0.52488   1.000
    C85     C    0.52910   0.69065   0.40862   1.000
    C86     C    0.70169   0.04812   0.59310   1.000
    C87     C    0.72644   0.92219   0.52240   1.000
    C88     C    0.03295   0.58348   0.25800   1.000
    C89     C    0.07607   0.48410   0.28070   1.000
    C90     C    0.96889   0.78082   0.52534   1.000
    C91     C    0.02670   0.80880   0.40868   1.000
    C92     C    0.20168   0.45317   0.59309   1.000
    C93     C    0.22563   0.57909   0.52229   1.000
    C94     C    0.96707   0.91645   0.75801   1.000
    C95     C    0.92393   0.01583   0.78073   1.000
    C96     C    0.03112   0.71915   0.02534   1.000
    C97     C    0.97324   0.69119   0.90872   1.000
    C98     C    0.79829   0.04688   0.09304   1.000
    C99     C    0.77433   0.92095   0.02223   1.000
    C100    C    0.53219   0.41601   0.24216   1.000
    C101    C    0.57725   0.51458   0.21965   1.000
    C102    C    0.47047   0.21931   0.97511   1.000
    C103    C    0.52904   0.19066   0.09140   1.000
    C104    C    0.70169   0.54813   0.90685   1.000
    C105    C    0.72647   0.42225   0.97750   1.000
    C106    C    0.46784   0.08399   0.74215   1.000
    C107    C    0.42276   0.98541   0.71964   1.000
    C108    C    0.52953   0.28069   0.47510   1.000
    C109    C    0.47080   0.30933   0.59130   1.000
    C110    C    0.29828   0.95183   0.40686   1.000
    C111    C    0.27351   0.07774   0.47755   1.000
    C112    C    0.99928   0.26395   0.54232   1.000
    C113    C    0.98663   0.10623   0.55797   1.000
    C114    C    0.02429   0.12290   0.48200   1.000
    C115    C    0.07083   0.26375   0.41041   1.000
    C116    C    0.86983   0.44792   0.49124   1.000
    C117    C    0.88590   0.52973   0.44628   1.000
    C118    C    0.72599   0.47984   0.42574   1.000
    C119    C    0.78273   0.62229   0.35746   1.000
    C120    C    0.00070   0.23602   0.04200   1.000
    C121    C    0.01334   0.39374   0.05796   1.000
    C122    C    0.97568   0.37708   0.98207   1.000
    C123    C    0.92911   0.23623   0.91042   1.000
    C124    C    0.13018   0.05207   0.99120   1.000
    C125    C    0.11412   0.97024   0.94620   1.000
    C126    C    0.27402   0.02015   0.92574   1.000
    C127    C    0.21731   0.87767   0.85747   1.000
    C128    C    0.49684   0.73623   0.95747   1.000
    C129    C    0.48519   0.89419   0.94190   1.000
    C130    C    0.52346   0.87697   0.01755   1.000
    C131    C    0.56947   0.73581   0.08907   1.000
    C132    C    0.36938   0.55133   0.00927   1.000
    C133    C    0.38607   0.46949   0.05420   1.000
    C134    C    0.22543   0.51851   0.07420   1.000
    C135    C    0.28285   0.37632   0.14257   1.000
    C136    C    0.50315   0.76377   0.45746   1.000
    C137    C    0.51485   0.60581   0.44190   1.000
    C138    C    0.47649   0.62302   0.51754   1.000
    C139    C    0.43033   0.76418   0.58903   1.000
    C140    C    0.63060   0.94863   0.50927   1.000
    C141    C    0.61393   0.03051   0.55418   1.000
    C142    C    0.77455   0.98144   0.57425   1.000
    C143    C    0.71717   0.12369   0.64252   1.000
    C144    C    0.00067   0.73602   0.45769   1.000
    C145    C    0.01330   0.89374   0.44203   1.000
    C146    C    0.97567   0.87707   0.51795   1.000
    C147    C    0.92916   0.73621   0.58961   1.000
    C148    C    0.13015   0.55208   0.50882   1.000
    C149    C    0.11409   0.47026   0.55377   1.000
    C150    C    0.27398   0.52021   0.57430   1.000
    C151    C    0.21727   0.37773   0.64261   1.000
    C152    C    0.99930   0.76396   0.95773   1.000
    C153    C    0.98666   0.60625   0.94206   1.000
    C154    C    0.02433   0.62291   0.01794   1.000
    C155    C    0.07090   0.76375   0.08960   1.000
    C156    C    0.86982   0.94793   0.00870   1.000
    C157    C    0.88589   0.02975   0.05370   1.000
    C158    C    0.72599   0.97985   0.07427   1.000
    C159    C    0.78270   0.12232   0.14254   1.000
    C160    C    0.50316   0.26378   0.04254   1.000
    C161    C    0.51481   0.10582   0.05810   1.000
    C162    C    0.47654   0.12304   0.98245   1.000
    C163    C    0.43052   0.26421   0.91093   1.000
    C164    C    0.63062   0.44867   0.99075   1.000
    C165    C    0.61393   0.53051   0.94582   1.000
    C166    C    0.77457   0.48148   0.92570   1.000
    C167    C    0.71716   0.62367   0.85745   1.000
    C168    C    0.49675   0.23622   0.54252   1.000
    C169    C    0.48508   0.39417   0.55809   1.000
    C170    C    0.52345   0.37697   0.48245   1.000
    C171    C    0.56957   0.23581   0.41090   1.000
    C172    C    0.36936   0.05132   0.49070   1.000
    C173    C    0.38604   0.96946   0.44582   1.000
    C174    C    0.22540   0.01849   0.42578   1.000
    C175    C    0.28280   0.87626   0.35748   1.000
    C176    C    0.99115   0.35918   0.68706   1.000
    C177    C    0.92002   0.53352   0.64597   1.000
    C178    C    0.89754   0.56905   0.77623   1.000
    C179    C    0.97738   0.39612   0.81460   1.000
    C180    C    0.00000   0.14081   0.18704   1.000
    C181    C    0.07999   0.96646   0.14594   1.000
    C182    C    0.10246   0.93093   0.27620   1.000
    C183    C    0.02262   0.10387   0.31463   1.000
    C184    C    0.49258   0.64078   0.81293   1.000
    C185    C    0.41819   0.46731   0.85361   1.000
    C186    C    0.39569   0.43309   0.72314   1.000
    C187    C    0.47894   0.60415   0.68525   1.000
    C188    C    0.50742   0.85922   0.31292   1.000
    C189    C    0.58180   0.03270   0.35360   1.000
    C190    C    0.60431   0.06690   0.22313   1.000
    C191    C    0.52104   0.89585   0.18524   1.000
    C192    C    0.00000   0.64079   0.31296   1.000
    C193    C    0.07998   0.46647   0.35407   1.000
    C194    C    0.10245   0.43088   0.22382   1.000
    C195    C    0.02265   0.60385   0.18538   1.000
    C196    C    0.99117   0.85916   0.81290   1.000
    C197    C    0.92002   0.03352   0.85405   1.000
    C198    C    0.89751   0.06899   0.72370   1.000
    C199    C    0.97739   0.89609   0.68539   1.000
    C200    C    0.50744   0.35923   0.18708   1.000
    C201    C    0.58182   0.53270   0.14641   1.000
    C202    C    0.60433   0.56691   0.27688   1.000
    C203    C    0.52109   0.39585   0.31476   1.000
    C204    C    0.49258   0.14077   0.68707   1.000
    C205    C    0.41819   0.96729   0.64640   1.000
    C206    C    0.39569   0.93310   0.77687   1.000
    C207    C    0.47895   0.10415   0.81475   1.000
    O208    O    0.74439   0.39130   0.99106   1.000
    O209    O    0.24338   0.11004   0.99129   1.000
    O210    O    0.82208   0.93444   0.01546   1.000
    O211    O    0.87786   0.98884   0.03120   1.000
    O212    O    0.92373   0.92781   0.96914   1.000
    O213    O    0.32145   0.56454   0.01587   1.000
    O214    O    0.37772   0.51041   0.03173   1.000
    O215    O    0.42280   0.57178   0.96913   1.000
    O216    O    0.52649   0.82884   0.02122   1.000
    O217    O    0.54805   0.92880   0.05683   1.000
    O218    O    0.50433   0.88558   0.97972   1.000
    O219    O    0.02772   0.67103   0.02164   1.000
    O220    O    0.04794   0.57024   0.05713   1.000
    O221    O    0.00549   0.61458   0.98000   1.000
    O222    O    0.75016   0.95040   0.04825   1.000
    O223    O    0.75662   0.88996   0.00870   1.000
    O224    O    0.24948   0.54813   0.04833   1.000
    O225    O    0.25561   0.60870   0.00893   1.000
    O226    O    0.54950   0.75825   0.05698   1.000
    O227    O    0.51318   0.75846   0.99118   1.000
    O228    O    0.05101   0.74145   0.05747   1.000
    O229    O    0.01521   0.74156   0.99153   1.000
    O230    O    0.01153   0.16417   0.05621   1.000
    O231    O    0.01373   0.27241   0.06665   1.000
    O232    O    0.98480   0.25843   0.00834   1.000
    O233    O    0.51347   0.33578   0.05653   1.000
    O234    O    0.51610   0.22722   0.06697   1.000
    O235    O    0.48682   0.24155   0.00882   1.000
    O236    O    0.95412   0.06103   0.06206   1.000
    O237    O    0.84209   0.03831   0.07337   1.000
    O238    O    0.45493   0.43864   0.06236   1.000
    O239    O    0.34219   0.46068   0.07368   1.000
    O240    O    0.02005   0.35127   0.07463   1.000
    O241    O    0.04245   0.45566   0.07714   1.000
    O242    O    0.99451   0.38541   0.02001   1.000
    O243    O    0.52193   0.14824   0.07475   1.000
    O244    O    0.54372   0.04323   0.07711   1.000
    O245    O    0.49568   0.11443   0.02027   1.000
    O246    O    0.05117   0.02939   0.10818   1.000
    O247    O    0.01118   0.11656   0.12873   1.000
    O248    O    0.07627   0.07219   0.03081   1.000
    O249    O    0.55280   0.47024   0.10846   1.000
    O250    O    0.51561   0.38350   0.12880   1.000
    O251    O    0.57720   0.42822   0.03063   1.000
    O252    O    0.26187   0.48519   0.08368   1.000
    O253    O    0.14849   0.51805   0.08526   1.000
    O254    O    0.76214   0.01336   0.08365   1.000
    O255    O    0.64931   0.98024   0.08519   1.000
    O256    O    0.56778   0.69928   0.09139   1.000
    O257    O    0.56416   0.75378   0.11511   1.000
    O258    O    0.06906   0.80028   0.09207   1.000
    O259    O    0.06578   0.74561   0.11558   1.000
    O260    O    0.04056   0.30419   0.12118   1.000
    O261    O    0.54305   0.19513   0.12123   1.000
    O262    O    0.79049   0.08460   0.11779   1.000
    O263    O    0.29058   0.41410   0.11787   1.000
    O264    O    0.54684   0.93824   0.14067   1.000
    O265    O    0.04710   0.56071   0.14085   1.000
    O266    O    0.81539   0.13702   0.15379   1.000
    O267    O    0.75374   0.11744   0.16278   1.000
    O268    O    0.31557   0.36185   0.15408   1.000
    O269    O    0.25365   0.38111   0.16263   1.000
    O270    O    0.07803   0.97529   0.18260   1.000
    O271    O    0.57953   0.52364   0.18303   1.000
    O272    O    0.52660   0.90593   0.22154   1.000
    O273    O    0.02780   0.59366   0.22169   1.000
    O274    O    0.01647   0.11216   0.21452   1.000
    O275    O    0.51981   0.38762   0.21462   1.000
    O276    O    0.05450   0.03381   0.23064   1.000
    O277    O    0.08926   0.95752   0.24773   1.000
    O278    O    0.55472   0.46530   0.23090   1.000
    O279    O    0.59079   0.54074   0.24827   1.000
    O280    O    0.59077   0.04074   0.25174   1.000
    O281    O    0.08926   0.45749   0.25226   1.000
    O282    O    0.02778   0.09369   0.27832   1.000
    O283    O    0.52664   0.40593   0.27846   1.000
    O284    O    0.55469   0.96529   0.26910   1.000
    O285    O    0.51978   0.88761   0.28538   1.000
    O286    O    0.05451   0.53379   0.26935   1.000
    O287    O    0.01648   0.61214   0.28548   1.000
    O288    O    0.57952   0.02364   0.31698   1.000
    O289    O    0.07803   0.47528   0.31738   1.000
    O290    O    0.51559   0.88349   0.37119   1.000
    O291    O    0.01118   0.61654   0.37127   1.000
    O292    O    0.04708   0.06073   0.35916   1.000
    O293    O    0.54687   0.43823   0.35933   1.000
    O294    O    0.75378   0.61742   0.33718   1.000
    O295    O    0.25361   0.88105   0.33742   1.000
    O296    O    0.31552   0.86178   0.34597   1.000
    O297    O    0.81543   0.63699   0.34621   1.000
    O298    O    0.04048   0.80420   0.37879   1.000
    O299    O    0.54314   0.69512   0.37879   1.000
    O300    O    0.55278   0.97023   0.39153   1.000
    O301    O    0.05117   0.52938   0.39182   1.000
    O302    O    0.79052   0.58457   0.38221   1.000
    O303    O    0.29054   0.91405   0.38217   1.000
    O304    O    0.06570   0.24561   0.38443   1.000
    O305    O    0.56428   0.25378   0.38489   1.000
    O306    O    0.14847   0.01804   0.41473   1.000
    O307    O    0.04242   0.95566   0.42285   1.000
    O308    O    0.04791   0.07024   0.44284   1.000
    O309    O    0.64932   0.48023   0.41482   1.000
    O310    O    0.54375   0.54322   0.42290   1.000
    O311    O    0.54805   0.42879   0.44318   1.000
    O312    O    0.06900   0.30029   0.40795   1.000
    O313    O    0.56785   0.19928   0.40860   1.000
    O314    O    0.26184   0.98516   0.41632   1.000
    O315    O    0.34216   0.96064   0.42634   1.000
    O316    O    0.76215   0.51335   0.41635   1.000
    O317    O    0.84210   0.53829   0.42662   1.000
    O318    O    0.52198   0.64823   0.42526   1.000
    O319    O    0.51613   0.72721   0.43304   1.000
    O320    O    0.02000   0.85127   0.42535   1.000
    O321    O    0.01368   0.77241   0.43318   1.000
    O322    O    0.05095   0.24145   0.44254   1.000
    O323    O    0.54955   0.25825   0.44300   1.000
    O324    O    0.75017   0.45039   0.45176   1.000
    O325    O    0.24946   0.04812   0.45166   1.000
    O326    O    0.45491   0.93861   0.43765   1.000
    O327    O    0.51346   0.83577   0.44346   1.000
    O328    O    0.57719   0.92820   0.46937   1.000
    O329    O    0.95413   0.56101   0.43793   1.000
    O330    O    0.01152   0.66416   0.44363   1.000
    O331    O    0.07626   0.57219   0.46920   1.000
    O332    O    0.49567   0.61442   0.47972   1.000
    O333    O    0.99449   0.88540   0.47999   1.000
    O334    O    0.37770   0.01039   0.46826   1.000
    O335    O    0.87786   0.48883   0.46876   1.000
    O336    O    0.48677   0.74153   0.49117   1.000
    O337    O    0.98478   0.75842   0.49151   1.000
    O338    O    0.02768   0.17102   0.47834   1.000
    O339    O    0.01518   0.24155   0.50850   1.000
    O340    O    0.52649   0.32883   0.47878   1.000
    O341    O    0.51314   0.25846   0.50881   1.000
    O342    O    0.32143   0.06453   0.48413   1.000
    O343    O    0.25560   0.10869   0.49108   1.000
    O344    O    0.82208   0.43444   0.48452   1.000
    O345    O    0.75662   0.38996   0.49133   1.000
    O346    O    0.00546   0.11457   0.51998   1.000
    O347    O    0.50426   0.38557   0.52027   1.000
    O348    O    0.42279   0.07177   0.53060   1.000
    O349    O    0.92373   0.42780   0.53084   1.000
    O350    O    0.24333   0.61009   0.50876   1.000
    O351    O    0.74435   0.89123   0.50891   1.000
    O352    O    0.17789   0.56559   0.51555   1.000
    O353    O    0.12212   0.51117   0.53129   1.000
    O354    O    0.67852   0.93541   0.51583   1.000
    O355    O    0.62227   0.98957   0.53173   1.000
    O356    O    0.47344   0.67116   0.52121   1.000
    O357    O    0.45192   0.57120   0.55683   1.000
    O358    O    0.97228   0.82894   0.52165   1.000
    O359    O    0.95205   0.92972   0.55715   1.000
    O360    O    0.24980   0.54965   0.54829   1.000
    O361    O    0.75050   0.95181   0.54832   1.000
    O362    O    0.45036   0.74173   0.55695   1.000
    O363    O    0.94902   0.75851   0.55748   1.000
    O364    O    0.98846   0.33581   0.55638   1.000
    O365    O    0.98626   0.22756   0.56683   1.000
    O366    O    0.48648   0.16422   0.55651   1.000
    O367    O    0.48377   0.27277   0.56691   1.000
    O368    O    0.04587   0.43897   0.56210   1.000
    O369    O    0.15789   0.46171   0.57343   1.000
    O370    O    0.54507   0.06136   0.56234   1.000
    O371    O    0.65781   0.03932   0.57364   1.000
    O372    O    0.97993   0.14870   0.57465   1.000
    O373    O    0.95754   0.04430   0.57716   1.000
    O374    O    0.47794   0.35175   0.57469   1.000
    O375    O    0.45621   0.45677   0.57710   1.000
    O376    O    0.94883   0.47060   0.60820   1.000
    O377    O    0.98440   0.38343   0.62875   1.000
    O378    O    0.44720   0.02976   0.60845   1.000
    O379    O    0.48440   0.11650   0.62879   1.000
    O380    O    0.73812   0.01478   0.58367   1.000
    O381    O    0.85149   0.98191   0.58530   1.000
    O382    O    0.23783   0.48669   0.58370   1.000
    O383    O    0.35066   0.51979   0.58521   1.000
    O384    O    0.43204   0.80070   0.59135   1.000
    O385    O    0.43563   0.74621   0.61508   1.000
    O386    O    0.93099   0.69967   0.59207   1.000
    O387    O    0.93429   0.75435   0.61559   1.000
    O388    O    0.45675   0.30486   0.62115   1.000
    O389    O    0.95944   0.19578   0.62121   1.000
    O390    O    0.20948   0.41545   0.61785   1.000
    O391    O    0.70943   0.08590   0.61781   1.000
    O392    O    0.45314   0.56176   0.64068   1.000
    O393    O    0.95292   0.93923   0.64087   1.000
    O394    O    0.68445   0.13817   0.65401   1.000
    O395    O    0.74636   0.11890   0.66258   1.000
    O396    O    0.18458   0.36303   0.65385   1.000
    O397    O    0.24623   0.38261   0.66285   1.000
    O398    O    0.92197   0.52469   0.68263   1.000
    O399    O    0.42048   0.97635   0.68302   1.000
    O400    O    0.47339   0.59407   0.72155   1.000
    O401    O    0.97223   0.90627   0.72170   1.000
    O402    O    0.97911   0.38783   0.71454   1.000
    O403    O    0.48021   0.11238   0.71461   1.000
    O404    O    0.94550   0.46617   0.73065   1.000
    O405    O    0.91074   0.54246   0.74776   1.000
    O406    O    0.44530   0.03470   0.73089   1.000
    O407    O    0.40923   0.95925   0.74825   1.000
    O408    O    0.40923   0.45926   0.75175   1.000
    O409    O    0.91072   0.04241   0.75221   1.000
    O410    O    0.97222   0.40630   0.77831   1.000
    O411    O    0.47340   0.09407   0.77845   1.000
    O412    O    0.44530   0.53471   0.76911   1.000
    O413    O    0.48021   0.61239   0.78539   1.000
    O414    O    0.94550   0.96614   0.76937   1.000
    O415    O    0.97912   0.88780   0.78545   1.000
    O416    O    0.42048   0.47637   0.81699   1.000
    O417    O    0.92197   0.02468   0.81739   1.000
    O418    O    0.98441   0.88342   0.87125   1.000
    O419    O    0.48440   0.61650   0.87096   1.000
    O420    O    0.95291   0.43926   0.85914   1.000
    O421    O    0.45316   0.06177   0.85932   1.000
    O422    O    0.24627   0.88255   0.83722   1.000
    O423    O    0.74635   0.61888   0.83739   1.000
    O424    O    0.68444   0.63815   0.84593   1.000
    O425    O    0.18462   0.86297   0.84622   1.000
    O426    O    0.45696   0.80488   0.87877   1.000
    O427    O    0.95943   0.69580   0.87883   1.000
    O428    O    0.44721   0.52977   0.89130   1.000
    O429    O    0.94883   0.97060   0.89182   1.000
    O430    O    0.70942   0.58590   0.88215   1.000
    O431    O    0.20952   0.91540   0.88218   1.000
    O432    O    0.93424   0.25437   0.88444   1.000
    O433    O    0.43583   0.24623   0.88489   1.000
    O434    O    0.85151   0.48194   0.91469   1.000
    O435    O    0.95755   0.54433   0.92288   1.000
    O436    O    0.95206   0.42974   0.94288   1.000
    O437    O    0.35069   0.01977   0.91482   1.000
    O438    O    0.45628   0.95678   0.92289   1.000
    O439    O    0.45196   0.07121   0.94317   1.000
    O440    O    0.93095   0.19970   0.90795   1.000
    O441    O    0.43222   0.30073   0.90861   1.000
    O442    O    0.73813   0.51480   0.91627   1.000
    O443    O    0.65781   0.53932   0.92633   1.000
    O444    O    0.23787   0.98664   0.91632   1.000
    O445    O    0.15792   0.96168   0.92655   1.000
    O446    O    0.47808   0.85177   0.92525   1.000
    O447    O    0.48390   0.77279   0.93304   1.000
    O448    O    0.97994   0.64872   0.92539   1.000
    O449    O    0.98627   0.72757   0.93322   1.000
    O450    O    0.94900   0.25854   0.94255   1.000
    O451    O    0.45050   0.24176   0.94302   1.000
    O452    O    0.75052   0.45186   0.95160   1.000
    O453    O    0.24984   0.04960   0.95176   1.000
    O454    O    0.54508   0.56137   0.93741   1.000
    O455    O    0.48653   0.66423   0.94323   1.000
    O456    O    0.04588   0.93896   0.93790   1.000
    O457    O    0.98847   0.83582   0.94366   1.000
    O458    O    0.62228   0.48959   0.96828   1.000
    O459    O    0.12215   0.01116   0.96870   1.000
    O460    O    0.97228   0.32896   0.97837   1.000
    O461    O    0.47351   0.17117   0.97878   1.000
    O462    O    0.67855   0.43546   0.98412   1.000
    O463    O    0.17792   0.06556   0.98449   1.000
loop_
    _geom_bond_atom_site_label_1
    _geom_bond_atom_site_label_2
    _geom_bond_distance
    _geom_bond_site_symmetry_2
    _ccdc_geom_bond_type
    C53    O208      0.54244  1_554   S
    C105   O208      0.54244      .   S
    C23    O209      0.54210  1_554   S
    C75    O209      0.54210      .   S
    C156   O210      0.66239      .   S
    C99    O210      0.66239      .   S
    C156   O211      0.69505      .   S
    C157   O211      0.69505  1_545   S
    C156   O212      1.01163  1_554   S
    C10    O212      1.01163      .   S
    C132   O213      0.66241      .   S
    C81    O213      0.66241      .   S
    C132   O214      0.69519      .   S
    C133   O214      0.69519      .   S
    C132   O215      1.01569  1_554   S
    C4     O215      1.01569      .   S
    C130   O216      0.67668      .   S
    C78    O216      0.67668      .   S
    C130   O217      1.03475      .   S
    C7     O217      1.03475      .   S
    C130   O218      0.69767  1_554   S
    C129   O218      0.69767      .   S
    C154   O219      0.67694      .   S
    C96    O219      0.67694      .   S
    C154   O220      1.03734      .   S
    C9     O220      1.03734      .   S
    C154   O221      0.69756  1_554   S
    C153   O221      0.69756  1_655   S
    C99    O222      0.68024      .   S
    C158   O222      0.68024      .   S
    C99    O223      0.54224      .   S
    C47    O223      0.54224  1_556   S
    C81    O224      0.67996      .   S
    C134   O224      0.67996      .   S
    C81    O225      0.54220      .   S
    C29    O225      0.54220  1_556   S
    C78    O226      0.67917      .   S
    C131   O226      0.67917      .   S
    C78    O227      0.68406  1_554   S
    C128   O227      0.68406      .   S
    C96    O228      0.67877      .   S
    C155   O228      0.67877      .   S
    C96    O229      0.68443  1_554   S
    C152   O229      0.68443  1_655   S
    C120   O230      1.04204      .   S
    C2     O230      1.04204      .   S
    C120   O231      0.67968      .   S
    C73    O231      0.67968      .   S
    C120   O232      0.68236  1_455   S
    C72    O232      0.68236  1_556   S
    C160   O233      1.04264      .   S
    C12    O233      1.04264      .   S
    C160   O234      0.67846      .   S
    C103   O234      0.67846      .   S
    C160   O235      0.68413      .   S
    C102   O235      0.68413  1_556   S
    C157   O236      1.00422      .   S
    C2     O236      1.00422  1_455   S
    C157   O237      0.67296      .   S
    C98    O237      0.67296      .   S
    C133   O238      1.00707      .   S
    C12    O238      1.00707      .   S
    C133   O239      0.67326      .   S
    C80    O239      0.67326      .   S
    C121   O240      0.66284      .   S
    C73    O240      0.66284      .   S
    C121   O241      1.00008      .   S
    C9     O241      1.00008      .   S
    C121   O242      0.69763  1_455   S
    C122   O242      0.69763  1_556   S
    C161   O243      0.66308      .   S
    C103   O243      0.66308      .   S
    C161   O244      1.00520      .   S
    C7     O244      1.00520  1_565   S
    C161   O245      0.69767      .   S
    C162   O245      0.69767  1_556   S
    C2     O246      1.14997      .   S
    C181   O246      1.14997  1_565   S
    C2     O247      1.05351      .   S
    C180   O247      1.05351      .   S
    C2     O248      1.01222      .   S
    C124   O248      1.01222  1_556   S
    C12    O249      1.14864      .   S
    C201   O249      1.14864      .   S
    C12    O250      1.04857      .   S
    C200   O250      1.04857      .   S
    C12    O251      1.01285      .   S
    C164   O251      1.01285  1_556   S
    C134   O252      0.68473      .   S
    C80    O252      0.68473      .   S
    C134   O253      1.02326      .   S
    C9     O253      1.02326      .   S
    C158   O254      0.68466  1_565   S
    C98    O254      0.68466      .   S
    C158   O255      1.01943      .   S
    C7     O255      1.01943      .   S
    C131   O256      0.51246      .   S
    C31    O256      0.51246      .   S
    C131   O257      0.51202      .   S
    C30    O257      0.51202      .   S
    C155   O258      0.51281      .   S
    C49    O258      0.51281      .   S
    C155   O259      0.51200      .   S
    C48    O259      0.51200      .   S
    C73    O260      0.54083      .   S
    C22    O260      0.54083      .   S
    C103   O261      0.54076      .   S
    C52    O261      0.54076      .   S
    C98    O262      0.68084      .   S
    C159   O262      0.68084      .   S
    C80    O263      0.68105      .   S
    C135   O263      0.68105      .   S
    C7     O264      1.01699      .   S
    C191   O264      1.01699      .   S
    C9     O265      1.01629      .   S
    C195   O265      1.01629      .   S
    C159   O266      0.51132      .   S
    C51    O266      0.51132      .   S
    C159   O267      0.51530      .   S
    C50    O267      0.51530      .   S
    C135   O268      0.51146      .   S
    C33    O268      0.51146      .   S
    C135   O269      0.51512      .   S
    C32    O269      0.51512      .   S
    C181   O270      0.63317      .   S
    C71    O270      0.63317      .   S
    C201   O271      0.63327      .   S
    C101   O271      0.63327      .   S
    C191   O272      0.63447      .   S
    C82    O272      0.63447      .   S
    C195   O273      0.63433      .   S
    C88    O273      0.63433      .   S
    C180   O274      0.65014      .   S
    C70    O274      0.65014      .   S
    C200   O275      0.63329      .   S
    C100   O275      0.63329      .   S
    C71    O276      0.77338  1_565   S
    C70    O276      0.77338      .   S
    C71    O277      0.63227      .   S
    C182   O277      0.63227      .   S
    C101   O278      0.77346      .   S
    C100   O278      0.77346      .   S
    C101   O279      0.63225      .   S
    C202   O279      0.63225      .   S
    C190   O280      0.63226      .   S
    C83    O280      0.63226      .   S
    C194   O281      0.63204      .   S
    C89    O281      0.63204      .   S
    C70    O282      0.63442      .   S
    C183   O282      0.63442      .   S
    C100   O283      0.63448      .   S
    C203   O283      0.63448      .   S
    C82    O284      0.77351      .   S
    C83    O284      0.77351  1_545   S
    C82    O285      0.63330      .   S
    C188   O285      0.63330      .   S
    C88    O286      0.77326      .   S
    C89    O286      0.77326      .   S
    C88    O287      0.65018      .   S
    C192   O287      0.65018      .   S
    C83    O288      0.63327      .   S
    C189   O288      0.63327      .   S
    C89    O289      0.63348      .   S
    C193   O289      0.63348      .   S
    C188   O290      1.04848      .   S
    C6     O290      1.04848      .   S
    C192   O291      1.05350      .   S
    C8     O291      1.05350      .   S
    C183   O292      1.01634      .   S
    C3     O292      1.01634      .   S
    C203   O293      1.01698      .   S
    C13    O293      1.01698      .   S
    C20    O294      0.51565      .   S
    C119   O294      0.51565      .   S
    C62    O295      0.51512      .   S
    C175   O295      0.51512      .   S
    C63    O296      0.51147      .   S
    C175   O296      0.51147      .   S
    C21    O297      0.51131      .   S
    C119   O297      0.51131      .   S
    C40    O298      0.54082      .   S
    C91    O298      0.54082      .   S
    C34    O299      0.54076      .   S
    C85    O299      0.54076      .   S
    C189   O300      1.14861  1_545   S
    C6     O300      1.14861      .   S
    C193   O301      1.14984      .   S
    C8     O301      1.14984      .   S
    C119   O302      0.68087      .   S
    C68    O302      0.68087      .   S
    C175   O303      0.68104      .   S
    C110   O303      0.68104      .   S
    C18    O304      0.51198      .   S
    C115   O304      0.51198      .   S
    C60    O305      0.51155      .   S
    C171   O305      0.51155      .   S
    C3     O306      1.02317      .   S
    C174   O306      1.02317      .   S
    C3     O307      1.00016  1_545   S
    C145   O307      1.00016      .   S
    C3     O308      1.03700      .   S
    C114   O308      1.03700      .   S
    C13    O309      1.01939      .   S
    C118   O309      1.01939      .   S
    C13    O310      1.00508      .   S
    C137   O310      1.00508      .   S
    C13    O311      1.03467      .   S
    C170   O311      1.03467      .   S
    C19    O312      0.51280      .   S
    C115   O312      0.51280      .   S
    C61    O313      0.51244      .   S
    C171   O313      0.51244      .   S
    C110   O314      0.68470      .   S
    C174   O314      0.68470  1_545   S
    C110   O315      0.67327      .   S
    C173   O315      0.67327      .   S
    C68    O316      0.68464      .   S
    C118   O316      0.68464      .   S
    C68    O317      0.67282      .   S
    C117   O317      0.67282      .   S
    C85    O318      0.66304      .   S
    C137   O318      0.66304      .   S
    C85    O319      0.67845      .   S
    C136   O319      0.67845      .   S
    C91    O320      0.66282      .   S
    C145   O320      0.66282      .   S
    C91    O321      0.67817      .   S
    C144   O321      0.67817      .   S
    C115   O322      0.67880      .   S
    C66    O322      0.67880      .   S
    C171   O323      0.67951      .   S
    C108   O323      0.67951      .   S
    C118   O324      0.68026      .   S
    C69    O324      0.68026      .   S
    C174   O325      0.68021      .   S
    C111   O325      0.68021      .   S
    C6     O326      1.00711      .   S
    C173   O326      1.00711      .   S
    C6     O327      1.04269      .   S
    C136   O327      1.04269      .   S
    C6     O328      1.01293      .   S
    C140   O328      1.01293      .   S
    C8     O329      1.00418  1_455   S
    C117   O329      1.00418      .   S
    C8     O330      1.04146      .   S
    C144   O330      1.04146      .   S
    C8     O331      1.01215      .   S
    C148   O331      1.01215      .   S
    C137   O332      0.69781      .   S
    C138   O332      0.69781      .   S
    C145   O333      0.69779  1_455   S
    C146   O333      0.69779      .   S
    C173   O334      0.69506  1_565   S
    C172   O334      0.69506      .   S
    C117   O335      0.69480      .   S
    C116   O335      0.69480      .   S
    C136   O336      0.68424      .   S
    C84    O336      0.68424      .   S
    C144   O337      0.68458  1_455   S
    C90    O337      0.68458      .   S
    C66    O338      0.67689      .   S
    C114   O338      0.67689      .   S
    C66    O339      0.68455      .   S
    C112   O339      0.68455  1_655   S
    C108   O340      0.67667      .   S
    C170   O340      0.67667      .   S
    C108   O341      0.68428      .   S
    C168   O341      0.68428      .   S
    C111   O342      0.66236      .   S
    C172   O342      0.66236      .   S
    C111   O343      0.54227      .   S
    C59    O343      0.54227      .   S
    C69    O344      0.66227      .   S
    C116   O344      0.66227      .   S
    C69    O345      0.54232      .   S
    C17    O345      0.54232      .   S
    C114   O346      0.69823      .   S
    C113   O346      0.69823  1_655   S
    C170   O347      0.69783      .   S
    C169   O347      0.69783      .   S
    C172   O348      1.01314      .   S
    C14    O348      1.01314      .   S
    C116   O349      1.01209      .   S
    C0     O349      1.01209      .   S
    C41    O350      0.54232      .   S
    C93    O350      0.54232      .   S
    C35    O351      0.54200      .   S
    C87    O351      0.54200      .   S
    C148   O352      0.66227      .   S
    C93    O352      0.66227      .   S
    C148   O353      0.69481      .   S
    C149   O353      0.69481      .   S
    C140   O354      0.66231      .   S
    C87    O354      0.66231      .   S
    C140   O355      0.69526      .   S
    C141   O355      0.69526  1_545   S
    C138   O356      0.67668      .   S
    C84    O356      0.67668      .   S
    C138   O357      1.03472      .   S
    C5     O357      1.03472      .   S
    C146   O358      0.67694      .   S
    C90    O358      0.67694      .   S
    C146   O359      1.03738      .   S
    C11    O359      1.03738      .   S
    C93    O360      0.68003      .   S
    C150   O360      0.68003      .   S
    C87    O361      0.68065      .   S
    C142   O361      0.68065      .   S
    C84    O362      0.67921      .   S
    C139   O362      0.67921      .   S
    C90    O363      0.67877      .   S
    C147   O363      0.67877      .   S
    C112   O364      1.04149      .   S
    C0     O364      1.04149      .   S
    C112   O365      0.67820      .   S
    C67    O365      0.67820      .   S
    C168   O366      1.04260      .   S
    C14    O366      1.04260      .   S
    C168   O367      0.67811      .   S
    C109   O367      0.67811      .   S
    C149   O368      1.00415      .   S
    C0     O368      1.00415  1_655   S
    C149   O369      0.67279      .   S
    C92    O369      0.67279      .   S
    C141   O370      1.00709      .   S
    C14    O370      1.00709      .   S
    C141   O371      0.67305      .   S
    C86    O371      0.67305      .   S
    C113   O372      0.66287      .   S
    C67    O372      0.66287      .   S
    C113   O373      1.00019      .   S
    C11    O373      1.00019  1_565   S
    C169   O374      0.66282      .   S
    C109   O374      0.66282      .   S
    C169   O375      1.00512      .   S
    C5     O375      1.00512      .   S
    C0     O376      1.14999      .   S
    C177   O376      1.14999      .   S
    C0     O377      1.04710      .   S
    C176   O377      1.04710      .   S
    C14    O378      1.14867      .   S
    C205   O378      1.14867  1_565   S
    C14    O379      1.04858      .   S
    C204   O379      1.04858      .   S
    C142   O380      0.68460  1_565   S
    C86    O380      0.68460      .   S
    C142   O381      1.02329      .   S
    C11    O381      1.02329      .   S
    C150   O382      0.68472      .   S
    C92    O382      0.68472      .   S
    C150   O383      1.01951      .   S
    C5     O383      1.01951      .   S
    C139   O384      0.51248      .   S
    C37    O384      0.51248      .   S
    C139   O385      0.51196      .   S
    C36    O385      0.51196      .   S
    C147   O386      0.51280      .   S
    C43    O386      0.51280      .   S
    C147   O387      0.51199      .   S
    C42    O387      0.51199      .   S
    C109   O388      0.54127      .   S
    C58    O388      0.54127      .   S
    C67    O389      0.54079      .   S
    C16    O389      0.54079      .   S
    C92    O390      0.68090      .   S
    C151   O390      0.68090      .   S
    C86    O391      0.68127      .   S
    C143   O391      0.68127      .   S
    C5     O392      1.01695      .   S
    C187   O392      1.01695      .   S
    C11    O393      1.01637      .   S
    C199   O393      1.01637      .   S
    C143   O394      0.51136      .   S
    C39    O394      0.51136      .   S
    C143   O395      0.51514      .   S
    C38    O395      0.51514      .   S
    C151   O396      0.51131      .   S
    C45    O396      0.51131      .   S
    C151   O397      0.51528      .   S
    C44    O397      0.51528      .   S
    C177   O398      0.63310      .   S
    C65    O398      0.63310      .   S
    C205   O399      0.63327      .   S
    C107   O399      0.63327      .   S
    C187   O400      0.63447      .   S
    C76    O400      0.63447      .   S
    C199   O401      0.63434      .   S
    C94    O401      0.63434      .   S
    C176   O402      0.63341      .   S
    C64    O402      0.63341      .   S
    C204   O403      0.63328      .   S
    C106   O403      0.63328      .   S
    C65    O404      0.77333      .   S
    C64    O404      0.77333      .   S
    C65    O405      0.63231      .   S
    C178   O405      0.63231      .   S
    C107   O406      0.77350  1_565   S
    C106   O406      0.77350      .   S
    C107   O407      0.63224      .   S
    C206   O407      0.63224      .   S
    C186   O408      0.63227      .   S
    C77    O408      0.63227      .   S
    C198   O409      0.63280      .   S
    C95    O409      0.63280      .   S
    C64    O410      0.63401      .   S
    C179   O410      0.63401      .   S
    C106   O411      0.63448      .   S
    C207   O411      0.63448      .   S
    C76    O412      0.77348      .   S
    C77    O412      0.77348      .   S
    C76    O413      0.63329      .   S
    C184   O413      0.63329      .   S
    C94    O414      0.77335      .   S
    C95    O414      0.77335  1_545   S
    C94    O415      0.63294      .   S
    C196   O415      0.63294      .   S
    C77    O416      0.63326      .   S
    C185   O416      0.63326      .   S
    C95    O417      0.63313      .   S
    C197   O417      0.63313      .   S
    C196   O418      1.04770      .   S
    C10    O418      1.04770      .   S
    C184   O419      1.04469      .   S
    C4     O419      1.04469      .   S
    C179   O420      1.01661      .   S
    C1     O420      1.01661      .   S
    C207   O421      1.01698      .   S
    C15    O421      1.01698      .   S
    C26    O422      0.51530      .   S
    C127   O422      0.51530      .   S
    C56    O423      0.51517      .   S
    C167   O423      0.51517      .   S
    C57    O424      0.51149      .   S
    C167   O424      0.51149      .   S
    C27    O425      0.51133      .   S
    C127   O425      0.51133      .   S
    C28    O426      0.54084      .   S
    C79    O426      0.54084      .   S
    C46    O427      0.54084      .   S
    C97    O427      0.54084      .   S
    C185   O428      1.14623      .   S
    C4     O428      1.14623      .   S
    C197   O429      1.15005  1_545   S
    C10    O429      1.15005      .   S
    C167   O430      0.68103      .   S
    C104   O430      0.68103      .   S
    C127   O431      0.68048      .   S
    C74    O431      0.68048      .   S
    C24    O432      0.51200      .   S
    C123   O432      0.51200      .   S
    C54    O433      0.51194      .   S
    C163   O433      0.51194      .   S
    C1     O434      1.02309      .   S
    C166   O434      1.02309      .   S
    C1     O435      1.00011      .   S
    C153   O435      1.00011      .   S
    C1     O436      1.03735      .   S
    C122   O436      1.03735      .   S
    C15    O437      1.01944      .   S
    C126   O437      1.01944      .   S
    C15    O438      1.00524  1_545   S
    C129   O438      1.00524      .   S
    C15    O439      1.03473      .   S
    C162   O439      1.03473      .   S
    C25    O440      0.51280      .   S
    C123   O440      0.51280      .   S
    C55    O441      0.51246      .   S
    C163   O441      0.51246      .   S
    C104   O442      0.68449      .   S
    C166   O442      0.68449      .   S
    C104   O443      0.67326      .   S
    C165   O443      0.67326      .   S
    C74    O444      0.68481      .   S
    C126   O444      0.68481  1_545   S
    C74    O445      0.67280      .   S
    C125   O445      0.67280      .   S
    C79    O446      0.66305      .   S
    C129   O446      0.66305      .   S
    C79    O447      0.67845      .   S
    C128   O447      0.67845      .   S
    C97    O448      0.66284      .   S
    C153   O448      0.66284      .   S
    C97    O449      0.67818      .   S
    C152   O449      0.67818      .   S
    C123   O450      0.67876      .   S
    C72    O450      0.67876      .   S
    C163   O451      0.67917      .   S
    C102   O451      0.67917      .   S
    C166   O452      0.68027      .   S
    C105   O452      0.68027      .   S
    C126   O453      0.68024      .   S
    C75    O453      0.68024      .   S
    C4     O454      1.00767      .   S
    C165   O454      1.00767      .   S
    C4     O455      1.04363      .   S
    C128   O455      1.04363      .   S
    C10    O456      1.00410  1_655   S
    C125   O456      1.00410      .   S
    C10    O457      1.04149      .   S
    C152   O457      1.04149      .   S
    C165   O458      0.69518      .   S
    C164   O458      0.69518      .   S
    C125   O459      0.69506  1_565   S
    C124   O459      0.69506      .   S
    C72    O460      0.67693      .   S
    C122   O460      0.67693      .   S
    C102   O461      0.67668      .   S
    C162   O461      0.67668      .   S
    C105   O462      0.66249      .   S
    C164   O462      0.66249      .   S
    C75    O463      0.66223      .   S
    C124   O463      0.66223      .   S
