# CIF file generated by openbabel 2.4.90, see http://openbabel.sf.net
data_I
_chemical_name_common ''
_cell_length_a 18.087
_cell_length_b 18.087
_cell_length_c 17.825
_cell_angle_alpha 90
_cell_angle_beta 89.999
_cell_angle_gamma 119.981
_space_group_name_H-M_alt 'P 1'
_space_group_name_Hall 'P 1'
loop_
    _symmetry_equiv_pos_as_xyz
    x,y,z
loop_
    _atom_site_label
    _atom_site_type_symbol
    _atom_site_fract_x
    _atom_site_fract_y
    _atom_site_fract_z
    _atom_site_occupancy
    H0      H    0.50892   0.29712   0.09197   1.000
    H1      H    0.00000   0.29713   0.09197   1.000
    H2      H    0.00000   0.79714   0.09190   1.000
    H3      H    0.41678   0.23927   0.03435   1.000
    H4      H    0.91679   0.23927   0.03430   1.000
    H5      H    0.91679   0.73927   0.03436   1.000
    H6      H    0.99078   0.28818   0.90798   1.000
    H7      H    0.99079   0.78818   0.90798   1.000
    H8      H    0.49079   0.28818   0.90798   1.000
    H9      H    0.08295   0.32218   0.96550   1.000
    H10     H    0.08296   0.82219   0.96550   1.000
    H11     H    0.58296   0.32218   0.96550   1.000
    C12     C    0.46081   0.30265   0.05824   1.000
    C13     C    0.96082   0.30265   0.05824   1.000
    C14     C    0.96082   0.80266   0.05824   1.000
    C15     C    0.03900   0.34171   0.94170   1.000
    C16     C    0.03900   0.84171   0.94170   1.000
    C17     C    0.53901   0.34171   0.94170   1.000
    O18     O    0.13591   0.13592   0.00000   1.000
    O19     O    0.13590   0.63592   0.99998   1.000
    O20     O    0.63592   0.13592   0.00000   1.000
    O21     O    0.63591   0.63592   0.99998   1.000
    O22     O    0.99999   0.36405   0.20000   1.000
    O23     O    0.99999   0.86405   0.20000   1.000
    O24     O    0.50000   0.36405   0.30000   1.000
    O25     O    0.49999   0.86405   0.00000   1.000
    O26     O    0.36404   0.99997   0.99998   1.000
    O27     O    0.36403   0.49997   0.99996   1.000
    O28     O    0.86405   0.99997   0.99998   1.000
    O29     O    0.86405   0.49998   0.99998   1.000
    O30     O    0.13591   0.13591   0.49998   1.000
    O31     O    0.13591   0.63592   0.49998   1.000
    O32     O    0.63592   0.13591   0.49998   1.000
    O33     O    0.63591   0.63592   0.49998   1.000
    O34     O    0.99998   0.36404   0.49996   1.000
    O35     O    0.99998   0.86405   0.49996   1.000
    O36     O    0.49999   0.36404   0.49996   1.000
    O37     O    0.49999   0.86405   0.49996   1.000
    O38     O    0.36404   0.99997   0.50000   1.000
    O39     O    0.36403   0.49997   0.50000   1.000
    O40     O    0.86404   0.99997   0.50000   1.000
    O41     O    0.86404   0.49997   0.50000   1.000
loop_
    _geom_bond_atom_site_label_1
    _geom_bond_atom_site_label_2
    _geom_bond_distance
    _geom_bond_site_symmetry_2
    _ccdc_geom_bond_type
    H4     C13       1.10366      .   S
    H3     C12       1.10330      .   S
    H5     C14       1.10325      .   S
    C12    H0        1.10245      .   S
    C14    H2        0.97094  1_655   S
    C13    H1        0.97181  1_655   S
    H6     C15       1.10246  1_655   S
    H7     C16       1.10246  1_655   S
    H8     C17       1.10245      .   S
    C17    H11       1.10329      .   S
    C16    H10       1.10326      .   S
    C15    H9        1.10327      .   S
