# CIF file generated by openbabel 2.4.90, see http://openbabel.sf.net
data_I
_chemical_name_common ''
_cell_length_a 18.087
_cell_length_b 18.087
_cell_length_c 17.825
_cell_angle_alpha 90
_cell_angle_beta 89.999
_cell_angle_gamma 119.981
_space_group_name_H-M_alt 'P 1'
_space_group_name_Hall 'P 1'
loop_
    _symmetry_equiv_pos_as_xyz
    x,y,z
loop_
    _atom_site_label
    _atom_site_type_symbol
    _atom_site_fract_x
    _atom_site_fract_y
    _atom_site_fract_z
    _atom_site_occupancy
    H0      H    0.20255   0.21174   0.09203   1.000
    H1      H    0.20257   0.71176   0.09203   1.000
    H2      H    0.70258   0.21175   0.09203   1.000
    H3      H    0.70261   0.71176   0.09201   1.000
    H4      H    0.26070   0.17771   0.03450   1.000
    H5      H    0.26070   0.67771   0.03449   1.000
    H6      H    0.76071   0.17770   0.03449   1.000
    H7      H    0.76071   0.67768   0.03447   1.000
    H8      H    0.50892   0.79713   0.09197   1.000
    H9      H    0.41678   0.73928   0.03430   1.000
    H10     H    0.28817   0.99080   0.09199   1.000
    H11     H    0.28816   0.49081   0.09190   1.000
    H12     H    0.78817   0.99080   0.09190   1.000
    H13     H    0.78817   0.49080   0.09199   1.000
    H14     H    0.32221   0.08297   0.03447   1.000
    H15     H    0.32221   0.58298   0.03440   1.000
    H16     H    0.82222   0.08298   0.03446   1.000
    H17     H    0.82221   0.58298   0.03447   1.000
    H18     H    0.20257   0.21174   0.40795   1.000
    H19     H    0.20257   0.71175   0.40795   1.000
    H20     H    0.70258   0.21174   0.40795   1.000
    H21     H    0.70259   0.71175   0.40796   1.000
    H22     H    0.26070   0.17769   0.46550   1.000
    H23     H    0.26070   0.67769   0.46549   1.000
    H24     H    0.76071   0.17769   0.46500   1.000
    H25     H    0.76070   0.67769   0.46550   1.000
    H26     H    0.50890   0.29711   0.40801   1.000
    H27     H    0.50891   0.79712   0.40801   1.000
    H28     H    0.00000   0.29711   0.40801   1.000
    H29     H    0.00000   0.79713   0.40801   1.000
    H30     H    0.41677   0.23926   0.46563   1.000
    H31     H    0.41677   0.73927   0.46563   1.000
    H32     H    0.91678   0.23926   0.46563   1.000
    H33     H    0.91678   0.73927   0.46563   1.000
    H34     H    0.28816   0.99079   0.40800   1.000
    H35     H    0.28816   0.49081   0.40800   1.000
    H36     H    0.78817   0.99079   0.40800   1.000
    H37     H    0.78817   0.49080   0.40800   1.000
    H38     H    0.32220   0.08297   0.46551   1.000
    H39     H    0.32221   0.58298   0.46552   1.000
    H40     H    0.82221   0.08297   0.46552   1.000
    H41     H    0.82221   0.58297   0.46550   1.000
    H42     H    0.49079   0.78818   0.90798   1.000
    H43     H    0.58296   0.82219   0.96550   1.000
    H44     H    0.21173   0.20258   0.90795   1.000
    H45     H    0.21173   0.70257   0.90794   1.000
    H46     H    0.71174   0.20256   0.90794   1.000
    H47     H    0.71173   0.70254   0.90793   1.000
    H48     H    0.17767   0.26070   0.96550   1.000
    H49     H    0.17769   0.76071   0.96549   1.000
    H50     H    0.67770   0.26070   0.96549   1.000
    H51     H    0.67772   0.76071   0.96547   1.000
    H52     H    0.29713   0.50891   0.90000   1.000
    H53     H    0.29713   0.00000   0.90800   1.000
    H54     H    0.79714   0.50891   0.90800   1.000
    H55     H    0.79714   0.00000   0.90800   1.000
    H56     H    0.23925   0.41678   0.96561   1.000
    H57     H    0.23925   0.91678   0.96562   1.000
    H58     H    0.73926   0.41678   0.96562   1.000
    H59     H    0.73926   0.91679   0.96561   1.000
    H60     H    0.99078   0.28817   0.59190   1.000
    H61     H    0.99079   0.78818   0.59198   1.000
    H62     H    0.49078   0.28818   0.59199   1.000
    H63     H    0.49079   0.78818   0.59198   1.000
    H64     H    0.08295   0.32217   0.53447   1.000
    H65     H    0.08296   0.82219   0.53446   1.000
    H66     H    0.58296   0.32217   0.53447   1.000
    H67     H    0.58296   0.82219   0.53440   1.000
    H68     H    0.21173   0.20256   0.59202   1.000
    H69     H    0.21173   0.70257   0.59202   1.000
    H70     H    0.71174   0.20256   0.59202   1.000
    H71     H    0.71174   0.70256   0.59202   1.000
    C72     C    0.65821   0.69725   0.55828   1.000
    H73     H    0.17770   0.26070   0.53448   1.000
    H74     H    0.17770   0.76071   0.53448   1.000
    H75     H    0.67771   0.26071   0.53448   1.000
    H76     H    0.67771   0.76071   0.53448   1.000
    H77     H    0.29714   0.50891   0.59197   1.000
    H78     H    0.29713   0.00000   0.59197   1.000
    H79     H    0.79714   0.50891   0.59197   1.000
    H80     H    0.79714   0.00000   0.59197   1.000
    H81     H    0.23925   0.41678   0.53435   1.000
    H82     H    0.23926   0.91678   0.53435   1.000
    H83     H    0.73926   0.41678   0.53435   1.000
    H84     H    0.73926   0.91679   0.53435   1.000
    C85     C    0.19724   0.15821   0.05830   1.000
    C86     C    0.19725   0.65822   0.05829   1.000
    C87     C    0.69726   0.15821   0.05829   1.000
    C88     C    0.69726   0.65822   0.05828   1.000
    C89     C    0.46081   0.80266   0.05824   1.000
    C90     C    0.34171   0.03900   0.05827   1.000
    C91     C    0.34171   0.53901   0.05827   1.000
    C92     C    0.84172   0.03901   0.05827   1.000
    C93     C    0.84172   0.53901   0.05827   1.000
    C94     C    0.19725   0.15820   0.44169   1.000
    C95     C    0.19725   0.65821   0.44169   1.000
    C96     C    0.69725   0.15821   0.44169   1.000
    C97     C    0.69725   0.65821   0.44169   1.000
    C98     C    0.46080   0.30264   0.44174   1.000
    C99     C    0.46081   0.80265   0.44174   1.000
    C100    C    0.96081   0.30264   0.44174   1.000
    C101    C    0.96081   0.80265   0.44174   1.000
    C102    C    0.34171   0.03900   0.44171   1.000
    C103    C    0.34171   0.53901   0.44170   1.000
    C104    C    0.84171   0.03900   0.44171   1.000
    C105    C    0.84171   0.53901   0.44171   1.000
    C106    C    0.53901   0.84171   0.94170   1.000
    C107    C    0.15819   0.19725   0.94169   1.000
    C108    C    0.15820   0.69725   0.94168   1.000
    C109    C    0.65820   0.19725   0.94168   1.000
    C110    C    0.65821   0.69725   0.94160   1.000
    C111    C    0.30263   0.46080   0.94173   1.000
    C112    C    0.30264   0.96081   0.94174   1.000
    C113    C    0.80264   0.46080   0.94174   1.000
    C114    C    0.80264   0.96081   0.94170   1.000
    C115    C    0.03900   0.34170   0.55826   1.000
    C116    C    0.03900   0.84171   0.55826   1.000
    C117    C    0.53900   0.34170   0.55826   1.000
    C118    C    0.53901   0.84171   0.55826   1.000
    C119    C    0.15820   0.19725   0.55828   1.000
    C120    C    0.15820   0.69725   0.55828   1.000
    C121    C    0.65821   0.19725   0.55828   1.000
    C122    C    0.30264   0.46080   0.55823   1.000
    C123    C    0.30264   0.96081   0.55823   1.000
    C124    C    0.80265   0.46080   0.55823   1.000
    C125    C    0.80265   0.96081   0.55823   1.000
    O126    O    0.13591   0.13592   0.00000   1.000
    O127    O    0.13590   0.63592   0.99998   1.000
    O128    O    0.63592   0.13592   0.00000   1.000
    O129    O    0.63591   0.63592   0.99998   1.000
    O130    O    0.49999   0.86405   0.00000   1.000
    O131    O    0.36404   0.99997   0.99998   1.000
    O132    O    0.36403   0.49997   0.99996   1.000
    O133    O    0.86405   0.99997   0.99998   1.000
    O134    O    0.86405   0.49998   0.99998   1.000
    O135    O    0.13591   0.13591   0.49998   1.000
    O136    O    0.13591   0.63592   0.49998   1.000
    O137    O    0.63592   0.13591   0.49998   1.000
    O138    O    0.63591   0.63592   0.49998   1.000
    O139    O    0.99998   0.36404   0.49996   1.000
    O140    O    0.99998   0.86405   0.49996   1.000
    O141    O    0.49999   0.36404   0.49996   1.000
    O142    O    0.49999   0.86405   0.49996   1.000
    O143    O    0.36404   0.99997   0.50000   1.000
    O144    O    0.36403   0.49997   0.50000   1.000
    O145    O    0.86404   0.99997   0.50000   1.000
    O146    O    0.86404   0.49997   0.50000   1.000
loop_
    _geom_bond_atom_site_label_1
    _geom_bond_atom_site_label_2
    _geom_bond_distance
    _geom_bond_site_symmetry_2
    _ccdc_geom_bond_type
    O130   C89       1.42350      .   S
    O130   C106      1.42344  1_554   S
    H9     C89       1.10364      .   S
    H15    C91       1.10373      .   S
    H16    C92       1.10329      .   S
    H7     C88       1.10322      .   S
    H14    C90       1.10325      .   S
    H17    C93       1.10326      .   S
    H6     C87       1.10322      .   S
    H5     C86       1.10322      .   S
    H4     C85       1.10326      .   S
    C89    H8        1.10245      .   S
    C90    H10       1.10249  1_545   S
    C90    O131      1.42338  1_544   S
    C91    H11       1.10163      .   S
    C91    O132      1.42367  1_554   S
    C92    H12       1.10162  1_545   S
    C92    O133      1.42343  1_544   S
    C93    H13       1.10251      .   S
    C93    O134      1.42335  1_554   S
    C88    H3        1.10244      .   S
    C88    O129      1.42369  1_554   S
    C86    H1        1.10249      .   S
    C86    O127      1.42368  1_554   S
    C87    H2        1.10249      .   S
    C87    O128      1.42333      .   S
    C85    H0        1.10238      .   S
    C85    O126      1.42338      .   S
    H18    C94       1.10249      .   S
    H20    C96       1.10248      .   S
    H19    C95       1.10250      .   S
    H21    C97       1.10240      .   S
    H37    C105      1.10241      .   S
    H34    C102      1.10242  1_565   S
    H35    C103      1.10232      .   S
    H36    C104      1.10242  1_565   S
    H29    C101      0.97186  1_455   S
    H28    C100      0.97198  1_455   S
    H27    C99       1.10244      .   S
    H26    C98       1.10244      .   S
    C97    H25       1.10326      .   S
    C97    O138      1.42337      .   S
    C96    H24       1.09989      .   S
    C96    O137      1.42333      .   S
    C95    H23       1.10321      .   S
    C95    O136      1.42333      .   S
    C94    H22       1.10329      .   S
    C94    O135      1.42335      .   S
    C103   H39       1.10336      .   S
    C103   O144      1.42357      .   S
    C105   H41       1.10317      .   S
    C105   O146      1.42340      .   S
    C104   H40       1.10332      .   S
    C104   O145      1.42340  1_545   S
    C102   H38       1.10324      .   S
    C102   O143      1.42339  1_545   S
    C98    H30       1.10328      .   S
    C98    O141      1.42339      .   S
    C99    H31       1.10330      .   S
    C99    O142      1.42337      .   S
    C100   H32       1.10329      .   S
    C100   O139      1.42334      .   S
    C101   H33       1.10331      .   S
    C101   O140      1.42332      .   S
    O139   C115      1.42342  1_655   S
    O140   C116      1.42346  1_655   S
    O141   C117      1.42341      .   S
    O142   C118      1.42344      .   S
    O138   C72       1.42340      .   S
    O135   C119      1.42343      .   S
    O136   C120      1.42344      .   S
    O137   C121      1.42345      .   S
    O144   C122      1.42338      .   S
    O146   C124      1.42342      .   S
    O145   C125      1.42338      .   S
    O143   C123      1.42340      .   S
    H84    C125      1.10326      .   S
    H83    C124      1.10327      .   S
    H82    C123      1.10326      .   S
    H81    C122      1.10328      .   S
    H67    C118      1.10370      .   S
    H65    C116      1.10327      .   S
    H64    C115      1.10321      .   S
    H66    C117      1.10322      .   S
    H76    C72       1.10325      .   S
    H75    C121      1.10323      .   S
    H74    C120      1.10323      .   S
    H73    C119      1.10323      .   S
    C125   H80       0.97198  1_565   S
    C124   H79       1.10247      .   S
    C123   H78       0.97199  1_565   S
    C122   H77       1.10247      .   S
    C118   H63       1.10245      .   S
    C117   H62       1.10254      .   S
    C115   H60       1.10167  1_455   S
    C116   H61       1.10246  1_455   S
    C72    H71       1.10245      .   S
    C121   H70       1.10247      .   S
    C120   H69       1.10246      .   S
    C119   H68       1.10246      .   S
    H52    C111      1.18619      .   S
    H47    C110      1.10173      .   S
    H45    C108      1.10245      .   S
    H46    C109      1.10245      .   S
    H44    C107      1.10247      .   S
    H42    C106      1.10245      .   S
    H53    C112      0.97197  1_545   S
    H55    C114      0.97147  1_545   S
    H54    C113      1.10250      .   S
    C110   H51       1.10377      .   S
    C110   O129      1.42436      .   S
    C108   H49       1.10329      .   S
    C108   O127      1.42345      .   S
    C109   H50       1.10328      .   S
    C109   O128      1.42363  1_556   S
    C107   H48       1.10324      .   S
    C107   O126      1.42358  1_556   S
    C106   H43       1.10329      .   S
    C114   H59       1.10347      .   S
    C114   O133      1.42414      .   S
    C111   H56       1.10327      .   S
    C111   O132      1.42340      .   S
    C112   H57       1.10327      .   S
    C112   O131      1.42364      .   S
    C113   H58       1.10325      .   S
    C113   O134      1.42368      .   S
