# CIF file generated by openbabel 2.4.90, see http://openbabel.sf.net
data_I
_chemical_name_common ''
_cell_length_a 18.087
_cell_length_b 18.087
_cell_length_c 17.825
_cell_angle_alpha 90
_cell_angle_beta 89.999
_cell_angle_gamma 119.981
_space_group_name_H-M_alt 'P 1'
_space_group_name_Hall 'P 1'
loop_
    _symmetry_equiv_pos_as_xyz
    x,y,z
loop_
    _atom_site_label
    _atom_site_type_symbol
    _atom_site_fract_x
    _atom_site_fract_y
    _atom_site_fract_z
    _atom_site_occupancy
    La0     La   0.33330   0.66673   0.24999   1.000
    La1     La   0.83331   0.16672   0.24999   1.000
    La2     La   0.83331   0.66673   0.24999   1.000
    La3     La   0.16671   0.33329   0.74998   1.000
    La4     La   0.16672   0.83330   0.74998   1.000
    La5     La   0.66672   0.33330   0.74998   1.000
    La6     La   0.66672   0.83330   0.74998   1.000
    Y7      Y    0.00003   0.00002   0.99999   1.000
    Y8      Y    0.00002   0.50002   0.99998   1.000
    Y9      Y    0.50003   0.00002   0.99999   1.000
    Y10     Y    0.50002   0.50002   0.99998   1.000
    Y11     Y    0.00002   0.00002   0.49999   1.000
    Y12     Y    0.00002   0.50003   0.49999   1.000
    Y13     Y    0.50003   0.00002   0.49999   1.000
    Y14     Y    0.50003   0.50003   0.49999   1.000
    La15    La   0.33330   0.16672   0.24999   1.000
    C16     C    0.33069   0.41040   0.60768   1.000
    C17     C    0.33069   0.91041   0.60760   1.000
    C18     C    0.83070   0.41040   0.60768   1.000
    C19     C    0.16931   0.07978   0.10772   1.000
    C20     C    0.16932   0.57979   0.10770   1.000
    C21     C    0.66932   0.07978   0.10771   1.000
    C22     C    0.66932   0.57979   0.10771   1.000
    C23     C    0.41042   0.33070   0.10769   1.000
    C24     C    0.41042   0.83071   0.10769   1.000
    C25     C    0.91042   0.33070   0.10769   1.000
    C26     C    0.91043   0.83071   0.10769   1.000
    O27     O    0.09012   0.48793   0.90959   1.000
    O28     O    0.09012   0.98793   0.90959   1.000
    O29     O    0.59013   0.48793   0.90959   1.000
    O30     O    0.59013   0.98793   0.90959   1.000
    O31     O    0.12969   0.41145   0.83754   1.000
    C32     C    0.42012   0.08947   0.10772   1.000
    C33     C    0.42011   0.58948   0.10772   1.000
    C34     C    0.92012   0.08947   0.10772   1.000
    C35     C    0.92012   0.58948   0.10772   1.000
    C36     C    0.16931   0.07977   0.39227   1.000
    C37     C    0.16931   0.57978   0.39227   1.000
    C38     C    0.66932   0.07977   0.39227   1.000
    C39     C    0.66932   0.57978   0.39227   1.000
    C40     C    0.41041   0.33069   0.39229   1.000
    C41     C    0.41041   0.83070   0.39229   1.000
    C42     C    0.91042   0.33069   0.39229   1.000
    C43     C    0.91042   0.83070   0.39229   1.000
    C44     C    0.42011   0.08947   0.39226   1.000
    C45     C    0.42011   0.58948   0.39226   1.000
    C46     C    0.92012   0.08947   0.39226   1.000
    C47     C    0.92012   0.58947   0.39226   1.000
    C48     C    0.08947   0.42011   0.89225   1.000
    C49     C    0.08947   0.92012   0.89220   1.000
    C50     C    0.58948   0.42012   0.89220   1.000
    C51     C    0.58948   0.92012   0.89220   1.000
    C52     C    0.07976   0.16931   0.89226   1.000
    C53     C    0.07977   0.66932   0.89226   1.000
    C54     C    0.57977   0.16931   0.89226   1.000
    C55     C    0.57977   0.66932   0.89226   1.000
    C56     C    0.33069   0.41040   0.89229   1.000
    C57     C    0.33069   0.91041   0.89229   1.000
    C58     C    0.83070   0.41040   0.89229   1.000
    C59     C    0.83070   0.91041   0.89229   1.000
    C60     C    0.08947   0.42011   0.60771   1.000
    C61     C    0.08947   0.92012   0.60771   1.000
    C62     C    0.58948   0.42011   0.60771   1.000
    C63     C    0.58948   0.92012   0.60771   1.000
    C64     C    0.07977   0.16931   0.60770   1.000
    C65     C    0.07977   0.66932   0.60770   1.000
    C66     C    0.57978   0.16931   0.60770   1.000
    C67     C    0.57978   0.66932   0.60770   1.000
    C68     C    0.83070   0.91041   0.60760   1.000
    O69     O    0.10218   0.01199   0.09030   1.000
    O70     O    0.10218   0.51200   0.09036   1.000
    O71     O    0.60219   0.01199   0.09036   1.000
    O72     O    0.60219   0.51200   0.09036   1.000
    O73     O    0.21818   0.08840   0.16240   1.000
    O74     O    0.21818   0.58841   0.16242   1.000
    O75     O    0.71819   0.08840   0.16242   1.000
    O76     O    0.71819   0.58841   0.16242   1.000
    O77     O    0.40992   0.39795   0.09040   1.000
    O78     O    0.40992   0.89796   0.09040   1.000
    O79     O    0.90993   0.39795   0.09040   1.000
    O80     O    0.90993   0.89796   0.09040   1.000
    O81     O    0.37010   0.28181   0.16230   1.000
    O82     O    0.37010   0.78182   0.16237   1.000
    O83     O    0.87011   0.28182   0.16237   1.000
    O84     O    0.87011   0.78182   0.16237   1.000
    O85     O    0.48793   0.09014   0.09038   1.000
    O86     O    0.48793   0.59014   0.09038   1.000
    O87     O    0.98794   0.09014   0.09038   1.000
    O88     O    0.98794   0.59015   0.09038   1.000
    O89     O    0.41146   0.12971   0.16242   1.000
    O90     O    0.41145   0.62972   0.16242   1.000
    O91     O    0.91147   0.12971   0.16242   1.000
    O92     O    0.91146   0.62972   0.16242   1.000
    O93     O    0.10218   0.01198   0.40960   1.000
    O94     O    0.10218   0.51199   0.40960   1.000
    O95     O    0.60219   0.01198   0.40960   1.000
    O96     O    0.60218   0.51199   0.40960   1.000
    O97     O    0.21818   0.08839   0.33756   1.000
    O98     O    0.21818   0.58840   0.33756   1.000
    O99     O    0.71819   0.08839   0.33756   1.000
    O100    O    0.71819   0.58840   0.33756   1.000
    O101    O    0.40992   0.39795   0.40958   1.000
    O102    O    0.40992   0.89796   0.40958   1.000
    O103    O    0.90992   0.39794   0.40958   1.000
    O104    O    0.90992   0.89795   0.40958   1.000
    O105    O    0.37009   0.28181   0.33762   1.000
    O106    O    0.37009   0.78182   0.33762   1.000
    O107    O    0.87010   0.28181   0.33762   1.000
    O108    O    0.87010   0.78182   0.33762   1.000
    O109    O    0.48793   0.09014   0.40960   1.000
    O110    O    0.48793   0.59014   0.40960   1.000
    O111    O    0.98794   0.09013   0.40960   1.000
    O112    O    0.98794   0.59014   0.40960   1.000
    O113    O    0.41146   0.12971   0.33756   1.000
    O114    O    0.41145   0.62972   0.33756   1.000
    O115    O    0.91146   0.12971   0.33756   1.000
    O116    O    0.91146   0.62971   0.33756   1.000
    O117    O    0.12969   0.91145   0.83754   1.000
    O118    O    0.62970   0.41145   0.83754   1.000
    O119    O    0.62970   0.91146   0.83754   1.000
    O120    O    0.01198   0.10216   0.90961   1.000
    O121    O    0.01198   0.60217   0.90961   1.000
    O122    O    0.51199   0.10217   0.90961   1.000
    O123    O    0.51199   0.60217   0.90961   1.000
    O124    O    0.08839   0.21817   0.83755   1.000
    O125    O    0.08839   0.71818   0.83754   1.000
    O126    O    0.58840   0.21817   0.83750   1.000
    O127    O    0.58840   0.71817   0.83754   1.000
    O128    O    0.39795   0.40992   0.90956   1.000
    O129    O    0.39795   0.90993   0.90956   1.000
    O130    O    0.89796   0.40992   0.90956   1.000
    O131    O    0.89796   0.90992   0.90956   1.000
    O132    O    0.28181   0.37010   0.83760   1.000
    O133    O    0.28182   0.87011   0.83760   1.000
    O134    O    0.78182   0.37010   0.83760   1.000
    O135    O    0.78182   0.87011   0.83760   1.000
    O136    O    0.09012   0.48792   0.59038   1.000
    O137    O    0.09012   0.98793   0.59038   1.000
    O138    O    0.59013   0.48792   0.59038   1.000
    O139    O    0.59013   0.98793   0.59038   1.000
    O140    O    0.12969   0.41144   0.66242   1.000
    O141    O    0.12969   0.91145   0.66242   1.000
    O142    O    0.62970   0.41144   0.66242   1.000
    O143    O    0.62970   0.91145   0.66242   1.000
    O144    O    0.01198   0.10217   0.59035   1.000
    O145    O    0.01198   0.60217   0.59035   1.000
    O146    O    0.51199   0.10217   0.59035   1.000
    O147    O    0.51199   0.60218   0.59035   1.000
    O148    O    0.08839   0.21817   0.66242   1.000
    O149    O    0.08839   0.71817   0.66242   1.000
    O150    O    0.58840   0.21817   0.66242   1.000
    O151    O    0.58840   0.71817   0.66242   1.000
    O152    O    0.39795   0.40992   0.59040   1.000
    O153    O    0.39796   0.90993   0.59040   1.000
    O154    O    0.89796   0.40992   0.59040   1.000
    O155    O    0.89796   0.90993   0.59040   1.000
    O156    O    0.28181   0.37010   0.66236   1.000
    O157    O    0.28182   0.87011   0.66236   1.000
    O158    O    0.78182   0.37010   0.66236   1.000
    O159    O    0.78182   0.87011   0.66236   1.000
loop_
    _geom_bond_atom_site_label_1
    _geom_bond_atom_site_label_2
    _geom_bond_distance
    _geom_bond_site_symmetry_2
    _ccdc_geom_bond_type
    O69    C19       1.25945      .   S
    O69    Y7        2.37756  1_554   S
    O70    C20       1.25911      .   S
    O70    Y8        2.37849  1_554   S
    O71    C21       1.25915      .   S
    O71    Y9        2.37827  1_554   S
    O72    C22       1.25917      .   S
    O72    Y10       2.37848  1_554   S
    O85    C32       1.25919      .   S
    O85    Y9        2.37840  1_554   S
    O86    C33       1.25919      .   S
    O86    Y10       2.37855  1_554   S
    O87    C34       1.25920      .   S
    O87    Y7        2.37827  1_654   S
    O88    C35       1.25918      .   S
    O88    Y8        2.37843  1_654   S
    O77    C23       1.25920      .   S
    O77    Y10       2.37802  1_554   S
    O78    C24       1.25918      .   S
    O78    Y9        2.37789  1_564   S
    O79    C25       1.25920      .   S
    O79    Y8        2.37793  1_654   S
    O80    C26       1.25918      .   S
    O80    Y7        2.37782  1_664   S
    C23    O81       1.27149      .   S
    C24    O82       1.27244      .   S
    C25    O83       1.27244      .   S
    C26    O84       1.27244      .   S
    C20    O74       1.27246      .   S
    C22    O76       1.27233      .   S
    C21    O75       1.27233      .   S
    C19    O73       1.27192      .   S
    C35    O92       1.27232      .   S
    C34    O91       1.27232      .   S
    C33    O90       1.27232      .   S
    C32    O89       1.27232      .   S
    O81    La15      2.41557      .   S
    O82    La0       2.41476      .   S
    O83    La1       2.41478      .   S
    O84    La2       2.41476      .   S
    O73    La15      2.41498      .   S
    O92    La2       2.41424      .   S
    O75    La1       2.41473      .   S
    O91    La1       2.41423      .   S
    O90    La0       2.41421      .   S
    O89    La15      2.41423      .   S
    O74    La0       2.41474      .   S
    O76    La2       2.41470      .   S
    La0    O98       2.41474      .   S
    La0    O114      2.41426      .   S
    La0    O106      2.41484      .   S
    La15   O113      2.41428      .   S
    La15   O97       2.41473      .   S
    La15   O105      2.41483      .   S
    La2    O100      2.41473      .   S
    La2    O116      2.41428      .   S
    La2    O108      2.41484      .   S
    La1    O115      2.41426      .   S
    La1    O99       2.41472      .   S
    La1    O107      2.41484      .   S
    O115   C46       1.27232      .   S
    O113   C44       1.27231      .   S
    O97    C36       1.27232      .   S
    O98    C37       1.27232      .   S
    O99    C38       1.27233      .   S
    O100   C39       1.27233      .   S
    O114   C45       1.27232      .   S
    O116   C47       1.27232      .   S
    O105   C40       1.27233      .   S
    O106   C41       1.27233      .   S
    O107   C42       1.27232      .   S
    O108   C43       1.27233      .   S
    C44    O109      1.25921      .   S
    C45    O110      1.25921      .   S
    C46    O111      1.25921      .   S
    C47    O112      1.25921      .   S
    C39    O96       1.25907      .   S
    C38    O95       1.25906      .   S
    C36    O93       1.25907      .   S
    C37    O94       1.25907      .   S
    C43    O104      1.25919      .   S
    C42    O103      1.25918      .   S
    C41    O102      1.25919      .   S
    C40    O101      1.25919      .   S
    O104   Y11       2.37785  1_665   S
    O103   Y12       2.37796  1_655   S
    O102   Y13       2.37791  1_565   S
    O101   Y14       2.37803      .   S
    O112   Y12       2.37829  1_655   S
    O110   Y14       2.37840      .   S
    O109   Y13       2.37841      .   S
    O96    Y14       2.37848      .   S
    O95    Y13       2.37848      .   S
    O94    Y12       2.37847      .   S
    O93    Y11       2.37848      .   S
    O111   Y11       2.37829  1_655   S
    Y14    O147      2.37802      .   S
    Y14    O138      2.37832      .   S
    Y14    O152      2.37791      .   S
    Y13    O146      2.37802      .   S
    Y13    O139      2.37819  1_545   S
    Y13    O153      2.37783  1_545   S
    Y12    O145      2.37803      .   S
    Y12    O136      2.37830      .   S
    Y12    O154      2.37780  1_455   S
    Y11    O144      2.37803      .   S
    Y11    O137      2.37820  1_545   S
    Y11    O155      2.37771  1_445   S
    O147   C67       1.25920      .   S
    O144   C64       1.25920      .   S
    O145   C65       1.25920      .   S
    O146   C66       1.25920      .   S
    O136   C60       1.25920      .   S
    O137   C61       1.25921      .   S
    O138   C62       1.25919      .   S
    O139   C63       1.25920      .   S
    O152   C16       1.25920      .   S
    O155   C68       1.25885      .   S
    O153   C17       1.25885      .   S
    O154   C18       1.25919      .   S
    C17    O157      1.27341      .   S
    C68    O159      1.27341      .   S
    C18    O158      1.27231      .   S
    C16    O156      1.27232      .   S
    C67    O151      1.27232      .   S
    C66    O150      1.27232      .   S
    C65    O149      1.27232      .   S
    C64    O148      1.27232      .   S
    C60    O140      1.27232      .   S
    C61    O141      1.27232      .   S
    C62    O142      1.27232      .   S
    C63    O143      1.27232      .   S
    O158   La5       2.41479      .   S
    O156   La3       2.41479      .   S
    O157   La4       2.41478      .   S
    O159   La6       2.41479      .   S
    O149   La4       2.41471      .   S
    O151   La6       2.41471      .   S
    O150   La5       2.41469      .   S
    O140   La3       2.41418      .   S
    O141   La4       2.41420      .   S
    O142   La5       2.41418      .   S
    O143   La6       2.41419      .   S
    O148   La3       2.41470      .   S
    La5    O126      2.41420      .   S
    La5    O118      2.41424      .   S
    La5    O134      2.41481      .   S
    La6    O119      2.41420      .   S
    La6    O127      2.41468      .   S
    La6    O135      2.41480      .   S
    La3    O31       2.41423      .   S
    La3    O124      2.41476      .   S
    La3    O132      2.41482      .   S
    La4    O125      2.41466      .   S
    La4    O117      2.41421      .   S
    La4    O133      2.41481      .   S
    O126   C54       1.27288      .   S
    O125   C53       1.27232      .   S
    O31    C48       1.27230      .   S
    O117   C49       1.27162      .   S
    O118   C50       1.27162      .   S
    O119   C51       1.27162      .   S
    O127   C55       1.27234      .   S
    O124   C52       1.27220      .   S
    O132   C56       1.27246      .   S
    O133   C57       1.27245      .   S
    O134   C58       1.27245      .   S
    O135   C59       1.27245      .   S
    C51    O30       1.25945      .   S
    C50    O29       1.25946      .   S
    C49    O28       1.25945      .   S
    C48    O27       1.25925      .   S
    C55    O123      1.25919      .   S
    C54    O122      1.25920      .   S
    C53    O121      1.25919      .   S
    C52    O120      1.25921      .   S
    C59    O131      1.25915      .   S
    C56    O128      1.25915      .   S
    C57    O129      1.25914      .   S
    C58    O130      1.25915      .   S
    O131   Y7        2.37812  1_665   S
    O130   Y8        2.37795  1_655   S
    O129   Y9        2.37823  1_565   S
    O128   Y10       2.37806      .   S
    O28    Y7        2.37821  1_565   S
    O27    Y8        2.37827      .   S
    O30    Y9        2.37821  1_565   S
    O29    Y10       2.37826      .   S
    O121   Y8        2.37814      .   S
    O123   Y10       2.37815      .   S
    O122   Y9        2.37821      .   S
    O120   Y7        2.37820      .   S
