# CIF file generated by openbabel 2.4.90, see http://openbabel.sf.net
data_I
_chemical_name_common ''
_cell_length_a 18.087
_cell_length_b 18.087
_cell_length_c 17.825
_cell_angle_alpha 90
_cell_angle_beta 89.999
_cell_angle_gamma 119.981
_space_group_name_H-M_alt 'P 1'
_space_group_name_Hall 'P 1'
loop_
    _symmetry_equiv_pos_as_xyz
    x,y,z
loop_
    _atom_site_label
    _atom_site_type_symbol
    _atom_site_fract_x
    _atom_site_fract_y
    _atom_site_fract_z
    _atom_site_occupancy
    Zr0     Zr   0.33330   0.16672   0.24999   1.000
    Zr1     Zr   0.33330   0.66673   0.24999   1.000
    Zr2     Zr   0.83331   0.16672   0.24999   1.000
    Zr3     Zr   0.83331   0.66673   0.24999   1.000
    Zr4     Zr   0.16671   0.33329   0.74998   1.000
    Zr5     Zr   0.16672   0.83330   0.74998   1.000
    Zr6     Zr   0.66672   0.33330   0.74998   1.000
    Zr7     Zr   0.66672   0.83330   0.74998   1.000
    Zr8     Zr   0.00003   0.00002   0.99999   1.000
    Zr9     Zr   0.00002   0.50002   0.99998   1.000
    Zr10    Zr   0.50003   0.00002   0.99999   1.000
    Zr11    Zr   0.50002   0.50002   0.99998   1.000
    Zr12    Zr   0.00002   0.00002   0.49999   1.000
    Zr13    Zr   0.00002   0.50003   0.49999   1.000
    Zr14    Zr   0.50003   0.00002   0.49999   1.000
    Zr15    Zr   0.50003   0.50003   0.49999   1.000
    N16     N    0.49999   0.86405   0.00000   1.000
    O17     O    0.50000   0.89804   1.00000   1.000
    N18     N    0.86404   0.49997   0.50000   1.000
    O19     O    0.89804   0.49999   0.50000   1.000
    N20     N    0.63591   0.63592   0.49998   1.000
    O21     O    0.60194   0.60195   0.49998   1.000
    N22     N    0.49999   0.86405   0.49996   1.000
    O23     O    0.50000   0.89804   0.49997   1.000
    N24     N    0.13591   0.13591   0.49998   1.000
    O25     O    0.10193   0.10194   0.49998   1.000
    N26     N    0.13591   0.13592   0.00000   1.000
    O27     O    0.10194   0.10194   1.00000   1.000
    N28     N    0.36403   0.49997   0.99996   1.000
    O29     O    0.39803   0.49998   0.99996   1.000
    N30     N    0.99998   0.86405   0.49996   1.000
    O31     O    0.99999   0.89804   0.49997   1.000
    N32     N    0.63592   0.13591   0.49998   1.000
    O33     O    0.60194   0.10194   0.49998   1.000
    N34     N    0.63592   0.13592   0.00000   1.000
    O35     O    0.60195   0.10195   1.00000   1.000
    N36     N    0.13591   0.63592   0.49998   1.000
    O37     O    0.10193   0.60194   0.49998   1.000
    N38     N    0.86404   0.99997   0.50000   1.000
    O39     O    0.89804   0.99998   0.50000   1.000
    N40     N    0.86405   0.49998   0.99998   1.000
    O41     O    0.89804   0.49999   0.99998   1.000
    N42     N    0.99998   0.36404   0.49996   1.000
    O43     O    0.99999   0.39804   0.49997   1.000
    N44     N    0.36404   0.99997   0.99998   1.000
    O45     O    0.39804   0.99999   0.99998   1.000
    N46     N    0.86405   0.99997   0.99998   1.000
    O47     O    0.89804   0.99998   0.99998   1.000
    N48     N    0.36404   0.99997   0.50000   1.000
    O49     O    0.39803   0.99998   0.50000   1.000
    N50     N    0.49999   0.36404   0.49996   1.000
    O51     O    0.50000   0.39804   0.49997   1.000
    N52     N    0.13590   0.63592   0.99998   1.000
    O53     O    0.10193   0.60194   0.99998   1.000
    N54     N    0.36403   0.49997   0.50000   1.000
    O55     O    0.39803   0.49999   0.50000   1.000
    N56     N    0.63591   0.63592   0.99998   1.000
    O57     O    0.60194   0.60195   0.99998   1.000
    C58     C    0.16322   0.06005   0.37981   1.000
    O59     O    0.18247   0.10541   0.40375   1.000
    O60     O    0.10716   0.03302   0.41730   1.000
    O61     O    0.21948   0.09380   0.33679   1.000
    C62     C    0.56006   0.16322   0.62016   1.000
    O63     O    0.60542   0.18247   0.59622   1.000
    O64     O    0.53303   0.10716   0.58266   1.000
    O65     O    0.59381   0.21947   0.66318   1.000
    C66     C    0.33682   0.89682   0.62012   1.000
    O67     O    0.28054   0.87426   0.66315   1.000
    O68     O    0.39291   0.92590   0.58266   1.000
    O69     O    0.31750   0.92211   0.59617   1.000
    C70     C    0.39681   0.33682   0.37983   1.000
    O71     O    0.42284   0.31749   0.40378   1.000
    O72     O    0.37425   0.28054   0.33682   1.000
    O73     O    0.42589   0.39290   0.41731   1.000
    C74     C    0.60310   0.43983   0.87978   1.000
    O75     O    0.62566   0.40610   0.83677   1.000
    O76     O    0.57409   0.46690   0.91728   1.000
    C77     C    0.43983   0.60311   0.12017   1.000
    O78     O    0.40610   0.62567   0.16319   1.000
    O79     O    0.46690   0.57410   0.08268   1.000
    O80     O    0.39448   0.57702   0.09622   1.000
    C81     C    0.16322   0.56005   0.37981   1.000
    O82     O    0.21948   0.59381   0.33679   1.000
    O83     O    0.10716   0.53303   0.41730   1.000
    O84     O    0.18247   0.60541   0.40374   1.000
    C85     C    0.06005   0.66322   0.87980   1.000
    O86     O    0.09380   0.71948   0.83678   1.000
    O87     O    0.10540   0.68248   0.90374   1.000
    O88     O    0.03302   0.60716   0.91730   1.000
    C89     C    0.93984   0.60311   0.12017   1.000
    O90     O    0.90611   0.62567   0.16319   1.000
    O91     O    0.89449   0.57702   0.09623   1.000
    O92     O    0.96691   0.57410   0.08268   1.000
    C93     C    0.16323   0.06006   0.12014   1.000
    O94     O    0.18247   0.10542   0.09623   1.000
    O95     O    0.21948   0.09381   0.16317   1.000
    O96     O    0.10716   0.03303   0.08264   1.000
    C97     C    0.06005   0.66322   0.62016   1.000
    O98     O    0.10541   0.68248   0.59622   1.000
    O99     O    0.03302   0.60716   0.58266   1.000
    O100    O    0.09380   0.71948   0.66318   1.000
    C101    C    0.66323   0.56005   0.37981   1.000
    O102    O    0.71949   0.59381   0.33679   1.000
    O103    O    0.68248   0.60541   0.40375   1.000
    O104    O    0.60717   0.53303   0.41730   1.000
    C105    C    0.83682   0.39681   0.87982   1.000
    O106    O    0.78055   0.37425   0.83680   1.000
    O107    O    0.81750   0.42284   0.90378   1.000
    O108    O    0.89290   0.42589   0.91729   1.000
    C109    C    0.93984   0.10311   0.12017   1.000
    O110    O    0.96691   0.07409   0.08268   1.000
    O111    O    0.90612   0.12566   0.16319   1.000
    O112    O    0.89450   0.07701   0.09622   1.000
    C113    C    0.33682   0.89682   0.87982   1.000
    O114    O    0.31749   0.92211   0.90378   1.000
    O115    O    0.28054   0.87426   0.83680   1.000
    O116    O    0.39290   0.92590   0.91730   1.000
    C117    C    0.39681   0.33682   0.12013   1.000
    O118    O    0.42589   0.39290   0.08266   1.000
    O119    O    0.37425   0.28054   0.16314   1.000
    C120    C    0.66323   0.06006   0.12016   1.000
    O121    O    0.71949   0.09381   0.16318   1.000
    O122    O    0.60717   0.03303   0.08267   1.000
    O123    O    0.68248   0.10542   0.09623   1.000
    C124    C    0.10310   0.93983   0.62017   1.000
    O125    O    0.12565   0.90610   0.66319   1.000
    O126    O    0.07408   0.96690   0.58268   1.000
    O127    O    0.07700   0.89449   0.59622   1.000
    C128    C    0.93984   0.10310   0.37981   1.000
    O129    O    0.89449   0.07701   0.40375   1.000
    O130    O    0.90611   0.12566   0.33679   1.000
    O131    O    0.96691   0.07409   0.41730   1.000
    C132    C    0.93984   0.60311   0.37981   1.000
    O133    O    0.90611   0.62566   0.33679   1.000
    O134    O    0.89449   0.57701   0.40375   1.000
    O135    O    0.96691   0.57410   0.41730   1.000
    C136    C    0.39681   0.83683   0.12015   1.000
    O137    O    0.42589   0.89291   0.08267   1.000
    O138    O    0.37426   0.78055   0.16317   1.000
    O139    O    0.42285   0.81751   0.09619   1.000
    C140    C    0.06005   0.16321   0.62016   1.000
    O141    O    0.03302   0.10715   0.58266   1.000
    O142    O    0.10541   0.18247   0.59622   1.000
    O143    O    0.09380   0.21947   0.66318   1.000
    C144    C    0.89682   0.33682   0.37983   1.000
    O145    O    0.92211   0.31749   0.40378   1.000
    O146    O    0.92589   0.39290   0.41731   1.000
    O147    O    0.87426   0.28054   0.33682   1.000
    C148    C    0.66323   0.06005   0.37981   1.000
    O149    O    0.68248   0.10541   0.40370   1.000
    O150    O    0.60717   0.03303   0.41730   1.000
    O151    O    0.71949   0.09380   0.33679   1.000
    C152    C    0.89682   0.33682   0.12015   1.000
    O153    O    0.87426   0.28055   0.16317   1.000
    O154    O    0.92589   0.39291   0.08267   1.000
    C155    C    0.66323   0.56006   0.12016   1.000
    O156    O    0.60717   0.53304   0.08267   1.000
    O157    O    0.71949   0.59382   0.16318   1.000
    O158    O    0.68249   0.60542   0.09623   1.000
    C159    C    0.43983   0.60311   0.37981   1.000
    O160    O    0.40610   0.62567   0.33679   1.000
    O161    O    0.46690   0.57410   0.41730   1.000
    O162    O    0.39448   0.57702   0.40375   1.000
    C163    C    0.83683   0.39681   0.62015   1.000
    O164    O    0.89291   0.42589   0.58267   1.000
    O165    O    0.78055   0.37425   0.66316   1.000
    O166    O    0.81750   0.42284   0.59619   1.000
    C167    C    0.56005   0.66322   0.87980   1.000
    O168    O    0.60541   0.68247   0.90372   1.000
    O169    O    0.53303   0.60716   0.91730   1.000
    O170    O    0.59381   0.71948   0.83678   1.000
    C171    C    0.56005   0.16322   0.87979   1.000
    O172    O    0.60541   0.18247   0.90373   1.000
    O173    O    0.59381   0.21947   0.83676   1.000
    O174    O    0.53303   0.10716   0.91729   1.000
    C175    C    0.39681   0.83683   0.37983   1.000
    O176    O    0.37425   0.78055   0.33682   1.000
    O177    O    0.42589   0.89291   0.41731   1.000
    O178    O    0.42285   0.81750   0.40378   1.000
    C179    C    0.10309   0.43983   0.87979   1.000
    O180    O    0.07408   0.46690   0.91729   1.000
    O181    O    0.12565   0.40610   0.83678   1.000
    C182    C    0.56006   0.66322   0.62016   1.000
    O183    O    0.59381   0.71948   0.66318   1.000
    O184    O    0.60541   0.68247   0.59622   1.000
    O185    O    0.53303   0.60716   0.58266   1.000
    C186    C    0.83683   0.89681   0.62012   1.000
    O187    O    0.89291   0.92589   0.58266   1.000
    O188    O    0.81750   0.92211   0.59617   1.000
    O189    O    0.78055   0.87426   0.66315   1.000
    C190    C    0.60310   0.93984   0.87978   1.000
    O191    O    0.57409   0.96691   0.91728   1.000
    O192    O    0.57701   0.89449   0.90372   1.000
    O193    O    0.62566   0.90611   0.83677   1.000
    C194    C    0.60310   0.43983   0.62017   1.000
    O195    O    0.57409   0.46690   0.58268   1.000
    O196    O    0.57701   0.39448   0.59622   1.000
    O197    O    0.62566   0.40610   0.66319   1.000
    C198    C    0.06005   0.16321   0.87981   1.000
    O199    O    0.03302   0.10715   0.91730   1.000
    O200    O    0.09380   0.21947   0.83679   1.000
    O201    O    0.10540   0.18247   0.90374   1.000
    C202    C    0.83682   0.89681   0.87982   1.000
    O203    O    0.81750   0.92211   0.90377   1.000
    O204    O    0.89291   0.92589   0.91730   1.000
    O205    O    0.78055   0.87426   0.83680   1.000
    C206    C    0.89682   0.83682   0.37983   1.000
    O207    O    0.92211   0.81750   0.40378   1.000
    O208    O    0.87426   0.78055   0.33682   1.000
    O209    O    0.92589   0.89290   0.41731   1.000
    C210    C    0.16323   0.56007   0.12016   1.000
    O211    O    0.21948   0.59382   0.16318   1.000
    O212    O    0.10716   0.53304   0.08267   1.000
    O213    O    0.18248   0.60542   0.09623   1.000
    C214    C    0.33682   0.39681   0.62015   1.000
    O215    O    0.28054   0.37425   0.66316   1.000
    O216    O    0.39290   0.42589   0.58267   1.000
    O217    O    0.31749   0.42285   0.59619   1.000
    C218    C    0.10309   0.43982   0.62017   1.000
    O219    O    0.07700   0.39448   0.59622   1.000
    O220    O    0.07408   0.46690   0.58268   1.000
    O221    O    0.12565   0.40610   0.66319   1.000
    C222    C    0.43983   0.10310   0.37981   1.000
    O223    O    0.40611   0.12566   0.33679   1.000
    O224    O    0.46691   0.07409   0.41730   1.000
    O225    O    0.39448   0.07701   0.40375   1.000
    C226    C    0.10310   0.93983   0.87978   1.000
    O227    O    0.07408   0.96691   0.91728   1.000
    O228    O    0.12565   0.90611   0.83677   1.000
    C229    C    0.60310   0.93983   0.62017   1.000
    O230    O    0.62566   0.90611   0.66319   1.000
    O231    O    0.57701   0.89449   0.59622   1.000
    O232    O    0.57409   0.96691   0.58268   1.000
    C233    C    0.33682   0.39681   0.87982   1.000
    O234    O    0.28054   0.37425   0.83680   1.000
    O235    O    0.39290   0.42589   0.91729   1.000
    O236    O    0.31749   0.42285   0.90311   1.000
    C237    C    0.43984   0.10311   0.12017   1.000
    O238    O    0.40611   0.12566   0.16319   1.000
    O239    O    0.39449   0.07701   0.09623   1.000
    O240    O    0.46691   0.07409   0.08268   1.000
    C241    C    0.89682   0.83683   0.12015   1.000
    O242    O    0.92590   0.89291   0.08267   1.000
    O243    O    0.87426   0.78055   0.16317   1.000
loop_
    _geom_bond_atom_site_label_1
    _geom_bond_atom_site_label_2
    _geom_bond_distance
    _geom_bond_site_symmetry_2
    _ccdc_geom_bond_type
    N16    O17       0.61475  1_554   S
    Zr10   O17       1.84426  1_545   S
    N18    O19       0.61474      .   S
    Zr13   O19       1.84422  1_455   S
    N20    O21       0.61463      .   S
    Zr15   O21       1.84390      .   S
    N22    O23       0.61474      .   S
    Zr14   O23       1.84423  1_545   S
    N24    O25       0.61463      .   S
    Zr12   O25       1.84390      .   S
    N26    O27       0.61464  1_554   S
    Zr8    O27       1.84392      .   S
    N28    O29       0.61481      .   S
    Zr11   O29       1.84443      .   S
    N30    O31       0.61475      .   S
    Zr12   O31       1.84424  1_445   S
    N32    O33       0.61463      .   S
    Zr14   O33       1.84390      .   S
    N34    O35       0.61464  1_554   S
    Zr10   O35       1.84392      .   S
    N36    O37       0.61463      .   S
    Zr13   O37       1.84389      .   S
    N38    O39       0.61474      .   S
    Zr12   O39       1.84422  1_445   S
    N40    O41       0.61471      .   S
    Zr9    O41       1.84414  1_455   S
    N42    O43       0.61482      .   S
    Zr13   O43       1.84444  1_455   S
    N44    O45       0.61481      .   S
    Zr10   O45       1.84444  1_545   S
    N46    O47       0.61474      .   S
    Zr8    O47       1.84422  1_445   S
    N48    O49       0.61481      .   S
    Zr14   O49       1.84442  1_545   S
    N50    O51       0.61481      .   S
    Zr15   O51       1.84444      .   S
    N52    O53       0.61464      .   S
    Zr9    O53       1.84392      .   S
    N54    O55       0.61481      .   S
    Zr15   O55       1.84442      .   S
    N56    O57       0.61464      .   S
    Zr11   O57       1.84392      .   S
    C58    O59       0.83117      .   S
    N24    O59       2.10258      .   S
    C58    O60       1.10379      .   S
    Zr12   O60       2.26446      .   S
    C58    O61       1.17269      .   S
    Zr0    O61       2.37862      .   S
    C62    O63       0.83111      .   S
    N32    O63       2.10258      .   S
    C62    O64       1.10380      .   S
    Zr14   O64       2.26424      .   S
    C62    O65       1.17275      .   S
    Zr6    O65       2.37867      .   S
    C66    O67       1.17288      .   S
    Zr5    O67       2.37882      .   S
    C66    O68       1.10378      .   S
    Zr14   O68       2.26420  1_545   S
    C66    O69       0.82071      .   S
    N48    O69       2.10843      .   S
    C70    O71       0.83112      .   S
    N50    O71       2.10255      .   S
    C70    O72       1.17273      .   S
    Zr0    O72       2.37870      .   S
    C70    O73       1.10396      .   S
    Zr15   O73       2.26447      .   S
    C74    O75       1.17261      .   S
    Zr6    O75       2.37833      .   S
    C74    O76       1.10402      .   S
    Zr11   O76       2.26462      .   S
    C77    O78       1.17268      .   S
    Zr1    O78       2.37839      .   S
    C77    O79       1.10395      .   S
    Zr11   O79       2.26467  1_556   S
    C77    O80       0.83126      .   S
    N28    O80       2.10289  1_556   S
    C81    O82       1.17269      .   S
    Zr1    O82       2.37863      .   S
    C81    O83       1.10379      .   S
    Zr13   O83       2.26445      .   S
    C81    O84       0.83116      .   S
    N36    O84       2.10256      .   S
    C85    O86       1.17274      .   S
    Zr5    O86       2.37863      .   S
    C85    O87       0.83112      .   S
    N52    O87       2.10259      .   S
    C85    O88       1.10383      .   S
    Zr9    O88       2.26434      .   S
    C89    O90       1.17268      .   S
    Zr3    O90       2.37841      .   S
    C89    O91       0.83115      .   S
    N40    O91       2.10268  1_556   S
    C89    O92       1.10389      .   S
    Zr9    O92       2.26454  1_456   S
    C93    O94       0.83100      .   S
    N26    O94       2.10234      .   S
    C93    O95       1.17281      .   S
    Zr0    O95       2.37887      .   S
    C93    O96       1.10385      .   S
    Zr8    O96       2.26408  1_556   S
    C97    O98       0.83111      .   S
    N36    O98       2.10259      .   S
    C97    O99       1.10380      .   S
    Zr13   O99       2.26425      .   S
    C97    O100      1.17275      .   S
    Zr5    O100      2.37867      .   S
    C101   O102      1.17269      .   S
    Zr3    O102      2.37862      .   S
    C101   O103      0.83116      .   S
    N20    O103      2.10258      .   S
    C101   O104      1.10380      .   S
    Zr15   O104      2.26446      .   S
    C105   O106      1.17276      .   S
    Zr6    O106      2.37871      .   S
    C105   O107      0.83115      .   S
    N40    O107      2.10289      .   S
    C105   O108      1.10390      .   S
    Zr9    O108      2.26436  1_455   S
    C109   O110      1.10388      .   S
    Zr8    O110      2.26446  1_456   S
    C109   O111      1.17268      .   S
    Zr2    O111      2.37840      .   S
    C109   O112      0.83122      .   S
    N46    O112      2.10262  1_566   S
    C113   O114      0.82076      .   S
    N44    O114      2.10902      .   S
    C113   O115      1.17275      .   S
    Zr5    O115      2.37870      .   S
    C113   O116      1.10400      .   S
    Zr10   O116      2.26462  1_545   S
    C117   O118      1.10383      .   S
    Zr11   O118      2.26433  1_556   S
    C117   O119      1.17268      .   S
    Zr0    O119      2.37902      .   S
    C120   O121      1.17274      .   S
    Zr2    O121      2.37867      .   S
    C120   O122      1.10382      .   S
    Zr10   O122      2.26439  1_556   S
    C120   O123      0.83112      .   S
    N34    O123      2.10251      .   S
    C124   O125      1.17269      .   S
    Zr5    O125      2.37840      .   S
    C124   O126      1.10387      .   S
    Zr12   O126      2.26442  1_545   S
    C124   O127      0.83115      .   S
    N30    O127      2.10276  1_655   S
    C128   O129      0.83115      .   S
    N38    O129      2.10268  1_565   S
    C128   O130      1.17269      .   S
    Zr2    O130      2.37843      .   S
    C128   O131      1.10388      .   S
    Zr12   O131      2.26447  1_455   S
    C132   O133      1.17270      .   S
    Zr3    O133      2.37844      .   S
    C132   O134      0.83114      .   S
    N18    O134      2.10270      .   S
    C132   O135      1.10388      .   S
    Zr13   O135      2.26447  1_455   S
    C136   O137      1.10391      .   S
    Zr10   O137      2.26434  1_546   S
    C136   O138      1.17275      .   S
    Zr1    O138      2.37868      .   S
    C136   O139      0.83118      .   S
    N16    O139      2.10267      .   S
    C140   O141      1.10380      .   S
    Zr12   O141      2.26424      .   S
    C140   O142      0.83111      .   S
    N24    O142      2.10257      .   S
    C140   O143      1.17275      .   S
    Zr4    O143      2.37867      .   S
    C144   O145      0.82073      .   S
    N42    O145      2.10868      .   S
    C144   O146      1.10395      .   S
    Zr13   O146      2.26444  1_455   S
    C144   O147      1.17273      .   S
    Zr2    O147      2.37870      .   S
    C148   O149      0.83078      .   S
    N32    O149      2.10316      .   S
    C148   O150      1.10379      .   S
    Zr14   O150      2.26445      .   S
    C148   O151      1.17269      .   S
    Zr2    O151      2.37862      .   S
    C152   O153      1.17275      .   S
    Zr2    O153      2.37869      .   S
    C152   O154      1.10396      .   S
    Zr9    O154      2.26443  1_456   S
    C155   O156      1.10389      .   S
    Zr11   O156      2.26457  1_556   S
    C155   O157      1.17273      .   S
    Zr3    O157      2.37865      .   S
    C155   O158      0.83113      .   S
    N56    O158      2.10285  1_556   S
    C159   O160      1.17270      .   S
    Zr1    O160      2.37843      .   S
    C159   O161      1.10393      .   S
    Zr15   O161      2.26458      .   S
    C159   O162      0.83112      .   S
    N54    O162      2.10274      .   S
    C163   O164      1.10388      .   S
    Zr13   O164      2.26428  1_455   S
    C163   O165      1.17272      .   S
    Zr6    O165      2.37867      .   S
    C163   O166      0.83113      .   S
    N18    O166      2.10260      .   S
    C167   O168      0.83098      .   S
    N56    O168      2.10277      .   S
    C167   O169      1.10382      .   S
    Zr11   O169      2.26433      .   S
    C167   O170      1.17274      .   S
    Zr7    O170      2.37865      .   S
    C171   O172      0.83118      .   S
    N34    O172      2.10299  1_554   S
    C171   O173      1.17278      .   S
    Zr6    O173      2.37845      .   S
    C171   O174      1.10391      .   S
    Zr10   O174      2.26445      .   S
    C175   O176      1.17274      .   S
    Zr1    O176      2.37871      .   S
    C175   O177      1.10391      .   S
    Zr14   O177      2.26435  1_545   S
    C175   O178      0.83114      .   S
    N22    O178      2.10255      .   S
    C179   O180      1.10393      .   S
    Zr9    O180      2.26452      .   S
    C179   O181      1.17271      .   S
    Zr4    O181      2.37843      .   S
    C182   O183      1.17275      .   S
    Zr7    O183      2.37868      .   S
    C182   O184      0.83112      .   S
    N20    O184      2.10255      .   S
    C182   O185      1.10380      .   S
    Zr15   O185      2.26424      .   S
    C186   O187      1.10374      .   S
    Zr12   O187      2.26408  1_445   S
    C186   O188      0.82071      .   S
    N38    O188      2.10840      .   S
    C186   O189      1.17288      .   S
    Zr7    O189      2.37882      .   S
    C190   O191      1.10400      .   S
    Zr10   O191      2.26457  1_545   S
    C190   O192      0.83116      .   S
    N16    O192      2.10292  1_554   S
    C190   O193      1.17260      .   S
    Zr7    O193      2.37831      .   S
    C194   O195      1.10391      .   S
    Zr15   O195      2.26452      .   S
    C194   O196      0.83115      .   S
    N50    O196      2.10274      .   S
    C194   O197      1.17268      .   S
    Zr6    O197      2.37838      .   S
    C198   O199      1.10382      .   S
    Zr8    O199      2.26435      .   S
    C198   O200      1.17273      .   S
    Zr4    O200      2.37868      .   S
    C198   O201      0.83111      .   S
    N26    O201      2.10287  1_554   S
    C202   O203      0.82067      .   S
    N46    O203      2.10913      .   S
    C202   O204      1.10396      .   S
    Zr8    O204      2.26452  1_445   S
    C202   O205      1.17275      .   S
    Zr7    O205      2.37870      .   S
    C206   O207      0.82074      .   S
    N30    O207      2.10867      .   S
    C206   O208      1.17273      .   S
    Zr3    O208      2.37870      .   S
    C206   O209      1.10391      .   S
    Zr12   O209      2.26433  1_445   S
    C210   O211      1.17275      .   S
    Zr1    O211      2.37869      .   S
    C210   O212      1.10386      .   S
    Zr9    O212      2.26454  1_556   S
    C210   O213      0.83112      .   S
    N52    O213      2.10276  1_556   S
    C214   O215      1.17272      .   S
    Zr4    O215      2.37867      .   S
    C214   O216      1.10392      .   S
    Zr15   O216      2.26438      .   S
    C214   O217      0.83114      .   S
    N54    O217      2.10259      .   S
    C218   O219      0.83122      .   S
    N42    O219      2.10264  1_655   S
    C218   O220      1.10391      .   S
    Zr13   O220      2.26451      .   S
    C218   O221      1.17268      .   S
    Zr4    O221      2.37838      .   S
    C222   O223      1.17270      .   S
    Zr0    O223      2.37844      .   S
    C222   O224      1.10392      .   S
    Zr14   O224      2.26458      .   S
    C222   O225      0.83115      .   S
    N48    O225      2.10267  1_565   S
    C226   O227      1.10400      .   S
    Zr8    O227      2.26457  1_545   S
    C226   O228      1.17261      .   S
    Zr5    O228      2.37832      .   S
    C229   O230      1.17268      .   S
    Zr7    O230      2.37838      .   S
    C229   O231      0.83120      .   S
    N22    O231      2.10266      .   S
    C229   O232      1.10386      .   S
    Zr14   O232      2.26441  1_545   S
    C233   O234      1.17275      .   S
    Zr4    O234      2.37872      .   S
    C233   O235      1.10394      .   S
    Zr11   O235      2.26447      .   S
    C233   O236      0.82510      .   S
    N28    O236      2.11223      .   S
    C237   O238      1.17268      .   S
    Zr0    O238      2.37840      .   S
    C237   O239      0.83115      .   S
    N44    O239      2.10270  1_566   S
    C237   O240      1.10392      .   S
    Zr10   O240      2.26458  1_556   S
    C241   O242      1.10391      .   S
    Zr8    O242      2.26432  1_446   S
    C241   O243      1.17275      .   S
    Zr3    O243      2.37868      .   S
