# CIF file generated by openbabel 2.4.90, see http://openbabel.sf.net
data_I
_chemical_name_common ''
_cell_length_a 18.087
_cell_length_b 18.087
_cell_length_c 17.825
_cell_angle_alpha 90
_cell_angle_beta 89.999
_cell_angle_gamma 119.981
_space_group_name_H-M_alt 'P 1'
_space_group_name_Hall 'P 1'
loop_
    _symmetry_equiv_pos_as_xyz
    x,y,z
loop_
    _atom_site_label
    _atom_site_type_symbol
    _atom_site_fract_x
    _atom_site_fract_y
    _atom_site_fract_z
    _atom_site_occupancy
    Zr0     Zr   0.33330   0.16672   0.24999   1.000
    Zr1     Zr   0.33330   0.66673   0.24999   1.000
    Zr2     Zr   0.83331   0.16672   0.24999   1.000
    Zr3     Zr   0.83331   0.66673   0.24999   1.000
    Zr4     Zr   0.16671   0.33329   0.74998   1.000
    Zr5     Zr   0.16672   0.83330   0.74998   1.000
    Zr6     Zr   0.66672   0.33330   0.74998   1.000
    Zr7     Zr   0.66672   0.83330   0.74998   1.000
    Zr8     Zr   0.00003   0.00002   0.99999   1.000
    Zr9     Zr   0.00002   0.50002   0.99998   1.000
    Zr10    Zr   0.50003   0.00002   0.99999   1.000
    Zr11    Zr   0.50002   0.50002   0.99998   1.000
    Zr12    Zr   0.00002   0.00002   0.49999   1.000
    Zr13    Zr   0.00002   0.50003   0.49999   1.000
    Zr14    Zr   0.50003   0.00002   0.49999   1.000
    Zr15    Zr   0.50003   0.50003   0.49999   1.000
    N16     N    0.49999   0.86405   0.00000   1.000
    O17     O    0.50000   0.89804   1.00000   1.000
    N18     N    0.86404   0.49997   0.50000   1.000
    O19     O    0.89804   0.49999   0.50000   1.000
    N20     N    0.63591   0.63592   0.49998   1.000
    O21     O    0.60194   0.60195   0.49998   1.000
    N22     N    0.49999   0.86405   0.49996   1.000
    O23     O    0.50000   0.89804   0.49997   1.000
    N24     N    0.13591   0.13591   0.49998   1.000
    O25     O    0.10193   0.10194   0.49998   1.000
    N26     N    0.53759   0.31736   0.93839   1.000
    N27     N    0.13591   0.13592   0.00000   1.000
    O28     O    0.10194   0.10194   1.00000   1.000
    N29     N    0.36403   0.49997   0.99996   1.000
    O30     O    0.39803   0.49998   0.99996   1.000
    N31     N    0.99998   0.86405   0.49996   1.000
    O32     O    0.99999   0.89804   0.49997   1.000
    N33     N    0.63592   0.13591   0.49998   1.000
    O34     O    0.60194   0.10194   0.49998   1.000
    N35     N    0.03759   0.81736   0.93839   1.000
    N36     N    0.95921   0.77969   0.06150   1.000
    N37     N    0.63592   0.13592   0.00000   1.000
    O38     O    0.60195   0.10195   1.00000   1.000
    N39     N    0.13591   0.63592   0.49998   1.000
    O40     O    0.10193   0.60194   0.49998   1.000
    N41     N    0.86404   0.99997   0.50000   1.000
    O42     O    0.89804   0.99998   0.50000   1.000
    N43     N    0.86405   0.49998   0.99998   1.000
    O44     O    0.89804   0.49999   0.99998   1.000
    N45     N    0.99998   0.36404   0.49996   1.000
    O46     O    0.99999   0.39804   0.49997   1.000
    N47     N    0.36404   0.99997   0.99998   1.000
    O48     O    0.39804   0.99999   0.99998   1.000
    N49     N    0.86405   0.99997   0.99998   1.000
    O50     O    0.89804   0.99998   0.99998   1.000
    N51     N    0.36404   0.99997   0.50000   1.000
    O52     O    0.39803   0.99998   0.50000   1.000
    N53     N    0.49999   0.36404   0.49996   1.000
    O54     O    0.50000   0.39804   0.49997   1.000
    N55     N    0.13590   0.63592   0.99998   1.000
    O56     O    0.10193   0.60194   0.99998   1.000
    N57     N    0.36403   0.49997   0.50000   1.000
    O58     O    0.39803   0.49999   0.50000   1.000
    N59     N    0.46217   0.27968   0.06152   1.000
    N60     N    0.95920   0.27968   0.06150   1.000
    N61     N    0.63591   0.63592   0.99998   1.000
    O62     O    0.60194   0.60195   0.99998   1.000
    N63     N    0.03758   0.31735   0.93839   1.000
    N64     N    0.99999   0.86405   0.20000   1.000
    N65     N    0.50000   0.36405   0.30000   1.000
    N66     N    0.99999   0.36405   0.20000   1.000
    C67     C    0.16322   0.06005   0.37981   1.000
    O68     O    0.18247   0.10541   0.40375   1.000
    O69     O    0.10716   0.03302   0.41730   1.000
    O70     O    0.21948   0.09380   0.33679   1.000
    C71     C    0.56006   0.16322   0.62016   1.000
    O72     O    0.60542   0.18247   0.59622   1.000
    O73     O    0.53303   0.10716   0.58266   1.000
    O74     O    0.59381   0.21947   0.66318   1.000
    C75     C    0.33682   0.89682   0.62012   1.000
    O76     O    0.28054   0.87426   0.66315   1.000
    O77     O    0.39291   0.92590   0.58266   1.000
    O78     O    0.31750   0.92211   0.59617   1.000
    C79     C    0.39681   0.33682   0.37983   1.000
    O80     O    0.42284   0.31749   0.40378   1.000
    O81     O    0.37425   0.28054   0.33682   1.000
    O82     O    0.42589   0.39290   0.41731   1.000
    C83     C    0.60310   0.43983   0.87978   1.000
    O84     O    0.57701   0.39448   0.90372   1.000
    O85     O    0.62566   0.40610   0.83677   1.000
    O86     O    0.57409   0.46690   0.91728   1.000
    C87     C    0.43983   0.60311   0.12017   1.000
    O88     O    0.40610   0.62567   0.16319   1.000
    O89     O    0.46690   0.57410   0.08268   1.000
    O90     O    0.39448   0.57702   0.09622   1.000
    C91     C    0.16322   0.56005   0.37981   1.000
    O92     O    0.21948   0.59381   0.33679   1.000
    O93     O    0.10716   0.53303   0.41730   1.000
    O94     O    0.18247   0.60541   0.40374   1.000
    C95     C    0.06005   0.66322   0.87980   1.000
    O96     O    0.09380   0.71948   0.83678   1.000
    O97     O    0.10540   0.68248   0.90374   1.000
    O98     O    0.03302   0.60716   0.91730   1.000
    C99     C    0.93984   0.60311   0.12017   1.000
    O100    O    0.90611   0.62567   0.16319   1.000
    O101    O    0.89449   0.57702   0.09623   1.000
    O102    O    0.96691   0.57410   0.08268   1.000
    C103    C    0.16323   0.06006   0.12014   1.000
    O104    O    0.18247   0.10542   0.09623   1.000
    O105    O    0.21948   0.09381   0.16317   1.000
    O106    O    0.10716   0.03303   0.08264   1.000
    C107    C    0.06005   0.66322   0.62016   1.000
    O108    O    0.10541   0.68248   0.59622   1.000
    O109    O    0.03302   0.60716   0.58266   1.000
    O110    O    0.09380   0.71948   0.66318   1.000
    C111    C    0.66323   0.56005   0.37981   1.000
    O112    O    0.71949   0.59381   0.33679   1.000
    O113    O    0.68248   0.60541   0.40375   1.000
    O114    O    0.60717   0.53303   0.41730   1.000
    C115    C    0.83682   0.39681   0.87982   1.000
    O116    O    0.78055   0.37425   0.83680   1.000
    O117    O    0.81750   0.42284   0.90378   1.000
    O118    O    0.89290   0.42589   0.91729   1.000
    C119    C    0.93984   0.10311   0.12017   1.000
    O120    O    0.96691   0.07409   0.08268   1.000
    O121    O    0.90612   0.12566   0.16319   1.000
    O122    O    0.89450   0.07701   0.09622   1.000
    C123    C    0.33682   0.89682   0.87982   1.000
    O124    O    0.31749   0.92211   0.90378   1.000
    O125    O    0.28054   0.87426   0.83680   1.000
    O126    O    0.39290   0.92590   0.91730   1.000
    C127    C    0.39681   0.33682   0.12013   1.000
    O128    O    0.42589   0.39290   0.08266   1.000
    O129    O    0.42285   0.31750   0.09619   1.000
    O130    O    0.37425   0.28054   0.16314   1.000
    C131    C    0.66323   0.06006   0.12016   1.000
    O132    O    0.71949   0.09381   0.16318   1.000
    O133    O    0.60717   0.03303   0.08267   1.000
    O134    O    0.68248   0.10542   0.09623   1.000
    C135    C    0.10310   0.93983   0.62017   1.000
    O136    O    0.12565   0.90610   0.66319   1.000
    O137    O    0.07408   0.96690   0.58268   1.000
    O138    O    0.07700   0.89449   0.59622   1.000
    C139    C    0.93984   0.10310   0.37981   1.000
    O140    O    0.89449   0.07701   0.40375   1.000
    O141    O    0.90611   0.12566   0.33679   1.000
    O142    O    0.96691   0.07409   0.41730   1.000
    C143    C    0.93984   0.60311   0.37981   1.000
    O144    O    0.90611   0.62566   0.33679   1.000
    O145    O    0.89449   0.57701   0.40375   1.000
    O146    O    0.96691   0.57410   0.41730   1.000
    C147    C    0.39681   0.83683   0.12015   1.000
    O148    O    0.42589   0.89291   0.08267   1.000
    O149    O    0.37426   0.78055   0.16317   1.000
    O150    O    0.42285   0.81751   0.09619   1.000
    C151    C    0.06005   0.16321   0.62016   1.000
    O152    O    0.03302   0.10715   0.58266   1.000
    O153    O    0.10541   0.18247   0.59622   1.000
    O154    O    0.09380   0.21947   0.66318   1.000
    C155    C    0.89682   0.33682   0.37983   1.000
    O156    O    0.92211   0.31749   0.40378   1.000
    O157    O    0.92589   0.39290   0.41731   1.000
    O158    O    0.87426   0.28054   0.33682   1.000
    C159    C    0.66323   0.06005   0.37981   1.000
    O160    O    0.68248   0.10541   0.40370   1.000
    O161    O    0.60717   0.03303   0.41730   1.000
    O162    O    0.71949   0.09380   0.33679   1.000
    C163    C    0.89682   0.33682   0.12015   1.000
    O164    O    0.87426   0.28055   0.16317   1.000
    O165    O    0.92212   0.31750   0.09619   1.000
    O166    O    0.92589   0.39291   0.08267   1.000
    C167    C    0.66323   0.56006   0.12016   1.000
    O168    O    0.60717   0.53304   0.08267   1.000
    O169    O    0.71949   0.59382   0.16318   1.000
    O170    O    0.68249   0.60542   0.09623   1.000
    C171    C    0.43983   0.60311   0.37981   1.000
    O172    O    0.40610   0.62567   0.33679   1.000
    O173    O    0.46690   0.57410   0.41730   1.000
    O174    O    0.39448   0.57702   0.40375   1.000
    C175    C    0.83683   0.39681   0.62015   1.000
    O176    O    0.89291   0.42589   0.58267   1.000
    O177    O    0.78055   0.37425   0.66316   1.000
    O178    O    0.81750   0.42284   0.59619   1.000
    C179    C    0.56005   0.66322   0.87980   1.000
    O180    O    0.60541   0.68247   0.90372   1.000
    O181    O    0.53303   0.60716   0.91730   1.000
    O182    O    0.59381   0.71948   0.83678   1.000
    C183    C    0.56005   0.16322   0.87979   1.000
    O184    O    0.60541   0.18247   0.90373   1.000
    O185    O    0.59381   0.21947   0.83676   1.000
    O186    O    0.53303   0.10716   0.91729   1.000
    C187    C    0.39681   0.83683   0.37983   1.000
    O188    O    0.37425   0.78055   0.33682   1.000
    O189    O    0.42589   0.89291   0.41731   1.000
    O190    O    0.42285   0.81750   0.40378   1.000
    C191    C    0.10309   0.43983   0.87979   1.000
    O192    O    0.07700   0.39448   0.90374   1.000
    O193    O    0.07408   0.46690   0.91729   1.000
    O194    O    0.12565   0.40610   0.83678   1.000
    C195    C    0.56006   0.66322   0.62016   1.000
    O196    O    0.59381   0.71948   0.66318   1.000
    O197    O    0.60541   0.68247   0.59622   1.000
    O198    O    0.53303   0.60716   0.58266   1.000
    C199    C    0.83683   0.89681   0.62012   1.000
    O200    O    0.89291   0.92589   0.58266   1.000
    O201    O    0.81750   0.92211   0.59617   1.000
    O202    O    0.78055   0.87426   0.66315   1.000
    C203    C    0.60310   0.93984   0.87978   1.000
    O204    O    0.57409   0.96691   0.91728   1.000
    O205    O    0.57701   0.89449   0.90372   1.000
    O206    O    0.62566   0.90611   0.83677   1.000
    C207    C    0.60310   0.43983   0.62017   1.000
    O208    O    0.57409   0.46690   0.58268   1.000
    O209    O    0.57701   0.39448   0.59622   1.000
    O210    O    0.62566   0.40610   0.66319   1.000
    C211    C    0.06005   0.16321   0.87981   1.000
    O212    O    0.03302   0.10715   0.91730   1.000
    O213    O    0.09380   0.21947   0.83679   1.000
    O214    O    0.10540   0.18247   0.90374   1.000
    C215    C    0.83682   0.89681   0.87982   1.000
    O216    O    0.81750   0.92211   0.90377   1.000
    O217    O    0.89291   0.92589   0.91730   1.000
    O218    O    0.78055   0.87426   0.83680   1.000
    C219    C    0.89682   0.83682   0.37983   1.000
    O220    O    0.92211   0.81750   0.40378   1.000
    O221    O    0.87426   0.78055   0.33682   1.000
    O222    O    0.92589   0.89290   0.41731   1.000
    C223    C    0.16323   0.56007   0.12016   1.000
    O224    O    0.21948   0.59382   0.16318   1.000
    O225    O    0.10716   0.53304   0.08267   1.000
    O226    O    0.18248   0.60542   0.09623   1.000
    C227    C    0.33682   0.39681   0.62015   1.000
    O228    O    0.28054   0.37425   0.66316   1.000
    O229    O    0.39290   0.42589   0.58267   1.000
    O230    O    0.31749   0.42285   0.59619   1.000
    C231    C    0.10309   0.43982   0.62017   1.000
    O232    O    0.07700   0.39448   0.59622   1.000
    O233    O    0.07408   0.46690   0.58268   1.000
    O234    O    0.12565   0.40610   0.66319   1.000
    C235    C    0.43983   0.10310   0.37981   1.000
    O236    O    0.40611   0.12566   0.33679   1.000
    O237    O    0.46691   0.07409   0.41730   1.000
    O238    O    0.39448   0.07701   0.40375   1.000
    C239    C    0.10310   0.93983   0.87978   1.000
    O240    O    0.07408   0.96691   0.91728   1.000
    O241    O    0.12565   0.90611   0.83677   1.000
    O242    O    0.07700   0.89449   0.90372   1.000
    C243    C    0.60310   0.93983   0.62017   1.000
    O244    O    0.62566   0.90611   0.66319   1.000
    O245    O    0.57701   0.89449   0.59622   1.000
    O246    O    0.57409   0.96691   0.58268   1.000
    C247    C    0.33682   0.39681   0.87982   1.000
    O248    O    0.28054   0.37425   0.83680   1.000
    O249    O    0.39290   0.42589   0.91729   1.000
    O250    O    0.31749   0.42285   0.90311   1.000
    C251    C    0.43984   0.10311   0.12017   1.000
    O252    O    0.40611   0.12566   0.16319   1.000
    O253    O    0.39449   0.07701   0.09623   1.000
    O254    O    0.46691   0.07409   0.08268   1.000
    C255    C    0.89682   0.83683   0.12015   1.000
    O256    O    0.92590   0.89291   0.08267   1.000
    O257    O    0.92212   0.81751   0.09619   1.000
    O258    O    0.87426   0.78055   0.16317   1.000
loop_
    _geom_bond_atom_site_label_1
    _geom_bond_atom_site_label_2
    _geom_bond_distance
    _geom_bond_site_symmetry_2
    _ccdc_geom_bond_type
    N16    O17       0.61475  1_554   S
    Zr10   O17       1.84426  1_545   S
    N18    O19       0.61474      .   S
    Zr13   O19       1.84422  1_455   S
    N20    O21       0.61463      .   S
    Zr15   O21       1.84390      .   S
    N22    O23       0.61474      .   S
    Zr14   O23       1.84423  1_545   S
    N24    O25       0.61463      .   S
    Zr12   O25       1.84390      .   S
    N27    O28       0.61464  1_554   S
    Zr8    O28       1.84392      .   S
    N29    O30       0.61481      .   S
    Zr11   O30       1.84443      .   S
    N31    O32       0.61475      .   S
    Zr12   O32       1.84424  1_445   S
    N33    O34       0.61463      .   S
    Zr14   O34       1.84390      .   S
    N37    O38       0.61464  1_554   S
    Zr10   O38       1.84392      .   S
    N39    O40       0.61463      .   S
    Zr13   O40       1.84389      .   S
    N41    O42       0.61474      .   S
    Zr12   O42       1.84422  1_445   S
    N43    O44       0.61471      .   S
    Zr9    O44       1.84414  1_455   S
    N45    O46       0.61482      .   S
    Zr13   O46       1.84444  1_455   S
    N47    O48       0.61481      .   S
    Zr10   O48       1.84444  1_545   S
    N49    O50       0.61474      .   S
    Zr8    O50       1.84422  1_445   S
    N51    O52       0.61481      .   S
    Zr14   O52       1.84442  1_545   S
    N53    O54       0.61481      .   S
    Zr15   O54       1.84444      .   S
    N55    O56       0.61464      .   S
    Zr9    O56       1.84392      .   S
    N57    O58       0.61481      .   S
    Zr15   O58       1.84442      .   S
    N61    O62       0.61464      .   S
    Zr11   O62       1.84392      .   S
    C67    O68       0.83117      .   S
    N24    O68       2.10258      .   S
    C67    O69       1.10379      .   S
    Zr12   O69       2.26446      .   S
    C67    O70       1.17269      .   S
    Zr0    O70       2.37862      .   S
    C71    O72       0.83111      .   S
    N33    O72       2.10258      .   S
    C71    O73       1.10380      .   S
    Zr14   O73       2.26424      .   S
    C71    O74       1.17275      .   S
    Zr6    O74       2.37867      .   S
    C75    O76       1.17288      .   S
    Zr5    O76       2.37882      .   S
    C75    O77       1.10378      .   S
    Zr14   O77       2.26420  1_545   S
    C75    O78       0.82071      .   S
    N51    O78       2.10843      .   S
    C79    O80       0.83112      .   S
    N53    O80       2.10255      .   S
    C79    O81       1.17273      .   S
    Zr0    O81       2.37870      .   S
    C79    O82       1.10396      .   S
    Zr15   O82       2.26447      .   S
    C83    O84       0.83117      .   S
    N26    O84       1.35728      .   S
    C83    O85       1.17261      .   S
    Zr6    O85       2.37833      .   S
    C83    O86       1.10402      .   S
    Zr11   O86       2.26462      .   S
    C87    O88       1.17268      .   S
    Zr1    O88       2.37839      .   S
    C87    O89       1.10395      .   S
    Zr11   O89       2.26467  1_556   S
    C87    O90       0.83126      .   S
    N29    O90       2.10289  1_556   S
    C91    O92       1.17269      .   S
    Zr1    O92       2.37863      .   S
    C91    O93       1.10379      .   S
    Zr13   O93       2.26445      .   S
    C91    O94       0.83116      .   S
    N39    O94       2.10256      .   S
    C95    O96       1.17274      .   S
    Zr5    O96       2.37863      .   S
    C95    O97       0.83112      .   S
    N55    O97       2.10259      .   S
    C95    O98       1.10383      .   S
    Zr9    O98       2.26434      .   S
    C99    O100      1.17268      .   S
    Zr3    O100      2.37841      .   S
    C99    O101      0.83115      .   S
    N43    O101      2.10268  1_556   S
    C99    O102      1.10389      .   S
    Zr9    O102      2.26454  1_456   S
    C103   O104      0.83100      .   S
    N27    O104      2.10234      .   S
    C103   O105      1.17281      .   S
    Zr0    O105      2.37887      .   S
    C103   O106      1.10385      .   S
    Zr8    O106      2.26408  1_556   S
    C107   O108      0.83111      .   S
    N39    O108      2.10259      .   S
    C107   O109      1.10380      .   S
    Zr13   O109      2.26425      .   S
    C107   O110      1.17275      .   S
    Zr5    O110      2.37867      .   S
    C111   O112      1.17269      .   S
    Zr3    O112      2.37862      .   S
    C111   O113      0.83116      .   S
    N20    O113      2.10258      .   S
    C111   O114      1.10380      .   S
    Zr15   O114      2.26446      .   S
    C115   O116      1.17276      .   S
    Zr6    O116      2.37871      .   S
    C115   O117      0.83115      .   S
    N43    O117      2.10289      .   S
    C115   O118      1.10390      .   S
    Zr9    O118      2.26436  1_455   S
    C119   O120      1.10388      .   S
    Zr8    O120      2.26446  1_456   S
    C119   O121      1.17268      .   S
    Zr2    O121      2.37840      .   S
    C119   O122      0.83122      .   S
    N49    O122      2.10262  1_566   S
    C123   O124      0.82076      .   S
    N47    O124      2.10902      .   S
    C123   O125      1.17275      .   S
    Zr5    O125      2.37870      .   S
    C123   O126      1.10400      .   S
    Zr10   O126      2.26462  1_545   S
    C127   O128      1.10383      .   S
    Zr11   O128      2.26433  1_556   S
    C127   O129      0.83104      .   S
    N59    O129      1.35705      .   S
    C127   O130      1.17268      .   S
    Zr0    O130      2.37902      .   S
    C131   O132      1.17274      .   S
    Zr2    O132      2.37867      .   S
    C131   O133      1.10382      .   S
    Zr10   O133      2.26439  1_556   S
    C131   O134      0.83112      .   S
    N37    O134      2.10251      .   S
    C135   O136      1.17269      .   S
    Zr5    O136      2.37840      .   S
    C135   O137      1.10387      .   S
    Zr12   O137      2.26442  1_545   S
    C135   O138      0.83115      .   S
    N31    O138      2.10276  1_655   S
    C139   O140      0.83115      .   S
    N41    O140      2.10268  1_565   S
    C139   O141      1.17269      .   S
    Zr2    O141      2.37843      .   S
    C139   O142      1.10388      .   S
    Zr12   O142      2.26447  1_455   S
    C143   O144      1.17270      .   S
    Zr3    O144      2.37844      .   S
    C143   O145      0.83114      .   S
    N18    O145      2.10270      .   S
    C143   O146      1.10388      .   S
    Zr13   O146      2.26447  1_455   S
    C147   O148      1.10391      .   S
    Zr10   O148      2.26434  1_546   S
    C147   O149      1.17275      .   S
    Zr1    O149      2.37868      .   S
    C147   O150      0.83118      .   S
    N16    O150      2.10267      .   S
    C151   O152      1.10380      .   S
    Zr12   O152      2.26424      .   S
    C151   O153      0.83111      .   S
    N24    O153      2.10257      .   S
    C151   O154      1.17275      .   S
    Zr4    O154      2.37867      .   S
    C155   O156      0.82073      .   S
    N45    O156      2.10868      .   S
    C155   O157      1.10395      .   S
    Zr13   O157      2.26444  1_455   S
    C155   O158      1.17273      .   S
    Zr2    O158      2.37870      .   S
    C159   O160      0.83078      .   S
    N33    O160      2.10316      .   S
    C159   O161      1.10379      .   S
    Zr14   O161      2.26445      .   S
    C159   O162      1.17269      .   S
    Zr2    O162      2.37862      .   S
    C163   O164      1.17275      .   S
    Zr2    O164      2.37869      .   S
    C163   O165      0.82078      .   S
    N60    O165      1.32619      .   S
    C163   O166      1.10396      .   S
    Zr9    O166      2.26443  1_456   S
    C167   O168      1.10389      .   S
    Zr11   O168      2.26457  1_556   S
    C167   O169      1.17273      .   S
    Zr3    O169      2.37865      .   S
    C167   O170      0.83113      .   S
    N61    O170      2.10285  1_556   S
    C171   O172      1.17270      .   S
    Zr1    O172      2.37843      .   S
    C171   O173      1.10393      .   S
    Zr15   O173      2.26458      .   S
    C171   O174      0.83112      .   S
    N57    O174      2.10274      .   S
    C175   O176      1.10388      .   S
    Zr13   O176      2.26428  1_455   S
    C175   O177      1.17272      .   S
    Zr6    O177      2.37867      .   S
    C175   O178      0.83113      .   S
    N18    O178      2.10260      .   S
    C179   O180      0.83098      .   S
    N61    O180      2.10277      .   S
    C179   O181      1.10382      .   S
    Zr11   O181      2.26433      .   S
    C179   O182      1.17274      .   S
    Zr7    O182      2.37865      .   S
    C183   O184      0.83118      .   S
    N37    O184      2.10299  1_554   S
    C183   O185      1.17278      .   S
    Zr6    O185      2.37845      .   S
    C183   O186      1.10391      .   S
    Zr10   O186      2.26445      .   S
    C187   O188      1.17274      .   S
    Zr1    O188      2.37871      .   S
    C187   O189      1.10391      .   S
    Zr14   O189      2.26435  1_545   S
    C187   O190      0.83114      .   S
    N22    O190      2.10255      .   S
    C191   O192      0.83114      .   S
    N63    O192      1.35715      .   S
    C191   O193      1.10393      .   S
    Zr9    O193      2.26452      .   S
    C191   O194      1.17271      .   S
    Zr4    O194      2.37843      .   S
    C195   O196      1.17275      .   S
    Zr7    O196      2.37868      .   S
    C195   O197      0.83112      .   S
    N20    O197      2.10255      .   S
    C195   O198      1.10380      .   S
    Zr15   O198      2.26424      .   S
    C199   O200      1.10374      .   S
    Zr12   O200      2.26408  1_445   S
    C199   O201      0.82071      .   S
    N41    O201      2.10840      .   S
    C199   O202      1.17288      .   S
    Zr7    O202      2.37882      .   S
    C203   O204      1.10400      .   S
    Zr10   O204      2.26457  1_545   S
    C203   O205      0.83116      .   S
    N16    O205      2.10292  1_554   S
    C203   O206      1.17260      .   S
    Zr7    O206      2.37831      .   S
    C207   O208      1.10391      .   S
    Zr15   O208      2.26452      .   S
    C207   O209      0.83115      .   S
    N53    O209      2.10274      .   S
    C207   O210      1.17268      .   S
    Zr6    O210      2.37838      .   S
    C211   O212      1.10382      .   S
    Zr8    O212      2.26435      .   S
    C211   O213      1.17273      .   S
    Zr4    O213      2.37868      .   S
    C211   O214      0.83111      .   S
    N27    O214      2.10287  1_554   S
    C215   O216      0.82067      .   S
    N49    O216      2.10913      .   S
    C215   O217      1.10396      .   S
    Zr8    O217      2.26452  1_445   S
    C215   O218      1.17275      .   S
    Zr7    O218      2.37870      .   S
    C219   O220      0.82074      .   S
    N31    O220      2.10867      .   S
    C219   O221      1.17273      .   S
    Zr3    O221      2.37870      .   S
    C219   O222      1.10391      .   S
    Zr12   O222      2.26433  1_445   S
    C223   O224      1.17275      .   S
    Zr1    O224      2.37869      .   S
    C223   O225      1.10386      .   S
    Zr9    O225      2.26454  1_556   S
    C223   O226      0.83112      .   S
    N55    O226      2.10276  1_556   S
    C227   O228      1.17272      .   S
    Zr4    O228      2.37867      .   S
    C227   O229      1.10392      .   S
    Zr15   O229      2.26438      .   S
    C227   O230      0.83114      .   S
    N57    O230      2.10259      .   S
    C231   O232      0.83122      .   S
    N45    O232      2.10264  1_655   S
    C231   O233      1.10391      .   S
    Zr13   O233      2.26451      .   S
    C231   O234      1.17268      .   S
    Zr4    O234      2.37838      .   S
    C235   O236      1.17270      .   S
    Zr0    O236      2.37844      .   S
    C235   O237      1.10392      .   S
    Zr14   O237      2.26458      .   S
    C235   O238      0.83115      .   S
    N51    O238      2.10267  1_565   S
    C239   O240      1.10400      .   S
    Zr8    O240      2.26457  1_545   S
    C239   O241      1.17261      .   S
    Zr5    O241      2.37832      .   S
    C239   O242      0.83115      .   S
    N35    O242      1.35725      .   S
    C243   O244      1.17268      .   S
    Zr7    O244      2.37838      .   S
    C243   O245      0.83120      .   S
    N22    O245      2.10266      .   S
    C243   O246      1.10386      .   S
    Zr14   O246      2.26441  1_545   S
    C247   O248      1.17275      .   S
    Zr4    O248      2.37872      .   S
    C247   O249      1.10394      .   S
    Zr11   O249      2.26447      .   S
    C247   O250      0.82510      .   S
    N29    O250      2.11223      .   S
    C251   O252      1.17268      .   S
    Zr0    O252      2.37840      .   S
    C251   O253      0.83115      .   S
    N47    O253      2.10270  1_566   S
    C251   O254      1.10392      .   S
    Zr10   O254      2.26458  1_556   S
    C255   O256      1.10391      .   S
    Zr8    O256      2.26432  1_446   S
    C255   O257      0.82079      .   S
    N36    O257      1.32620      .   S
    C255   O258      1.17275      .   S
    Zr3    O258      2.37868      .   S
