# CIF file generated by openbabel 2.4.90, see http://openbabel.sf.net
data_I
_chemical_name_common ''
_cell_length_a 6.7565
_cell_length_b 7.1535
_cell_length_c 7.1865
_cell_angle_alpha 90.002
_cell_angle_beta 90.007
_cell_angle_gamma 90.001
_space_group_name_H-M_alt 'P 1'
_space_group_name_Hall 'P 1'
loop_
    _symmetry_equiv_pos_as_xyz
    x,y,z
loop_
    _atom_site_label
    _atom_site_type_symbol
    _atom_site_fract_x
    _atom_site_fract_y
    _atom_site_fract_z
    _atom_site_occupancy
    N0      N    0.49997   0.50009   0.49998   1.000
    N1      N    0.99989   0.74502   0.74522   1.000
    N2      N    0.00008   0.74502   0.25478   1.000
    N3      N    0.00007   0.25509   0.25475   1.000
    N4      N    0.99988   0.25509   0.74525   1.000
    Zr5     Zr   0.00000   0.00001   0.00000   1.000
    O6      O    0.00003   0.08849   0.08826   1.000
    O7      O    0.99996   0.08849   0.91174   1.000
    O8      O    0.99996   0.91157   0.91173   1.000
    O9      O    0.00003   0.91157   0.08826   1.000
    Zr10    Zr   0.99993   0.50010   0.49999   1.000
    O11     O    0.99992   0.58477   0.58468   1.000
    O12     O    0.99999   0.58477   0.41531   1.000
    O13     O    0.99992   0.41540   0.58469   1.000
    O14     O    0.99998   0.41540   0.41530   1.000
    O15     O    0.83848   0.50010   0.49997   1.000
    O16     O    0.16141   0.50010   0.50001   1.000
loop_
    _geom_bond_atom_site_label_1
    _geom_bond_atom_site_label_2
    _geom_bond_distance
    _geom_bond_site_symmetry_2
    _ccdc_geom_bond_type
    Zr5    O6        0.89599      .   S
    N3     O6        1.68875      .   S
    Zr5    O7        0.89602  1_454   S
    N4     O7        1.68880      .   S
    Zr5    O8        0.89591  1_444   S
    N1     O8        1.68860      .   S
    Zr5    O9        0.89593  1_545   S
    N2     O9        1.68864      .   S
    Zr10   O11       0.85858      .   S
    N1     O11       1.62640      .   S
    Zr10   O12       0.85860      .   S
    N2     O12       1.62643  1_455   S
    Zr10   O13       0.85885      .   S
    N4     O13       1.62684      .   S
    Zr10   O14       0.85879      .   S
    N3     O14       1.62674  1_455   S
    Zr10   O15       1.09084      .   S
    N0     O15       2.28713      .   S
    Zr10   O16       1.09105  1_655   S
    N0     O16       2.28748      .   S
