# CIF file generated by openbabel 2.4.90, see http://openbabel.sf.net
data_I
_chemical_name_common ''
_cell_length_a 18.655
_cell_length_b 17.343
_cell_length_c 20.282
_cell_angle_alpha 89.999
_cell_angle_beta 90.009
_cell_angle_gamma 98.643
_space_group_name_H-M_alt 'P 1'
_space_group_name_Hall 'P 1'
loop_
    _symmetry_equiv_pos_as_xyz
    x,y,z
loop_
    _atom_site_label
    _atom_site_type_symbol
    _atom_site_fract_x
    _atom_site_fract_y
    _atom_site_fract_z
    _atom_site_occupancy
    H0      H    0.40019   0.05244   0.76000   1.000
    H1      H    0.90019   0.05244   0.76079   1.000
    H2      H    0.19062   0.93105   0.81259   1.000
    H3      H    0.69062   0.93106   0.81259   1.000
    H4      H    0.27119   0.15268   0.90450   1.000
    H5      H    0.77119   0.15268   0.90450   1.000
    H6      H    0.08313   0.96874   0.85145   1.000
    H7      H    0.58313   0.96874   0.85145   1.000
    H8      H    0.13198   0.92276   0.91218   1.000
    H9      H    0.63198   0.92276   0.91218   1.000
    H10     H    0.47334   0.01751   0.88131   1.000
    H11     H    0.97335   0.01751   0.88131   1.000
    H12     H    0.11706   0.96030   0.03447   1.000
    H13     H    0.61707   0.96029   0.03447   1.000
    H14     H    0.05250   0.11937   0.75652   1.000
    H15     H    0.55251   0.11938   0.75652   1.000
    H16     H    0.12958   0.06739   0.67117   1.000
    H17     H    0.62958   0.06739   0.67117   1.000
    H18     H    0.25579   0.29603   0.66000   1.000
    H19     H    0.75579   0.29603   0.66000   1.000
    H20     H    0.17394   0.33924   0.74766   1.000
    H21     H    0.67394   0.33924   0.74766   1.000
    H22     H    0.21223   0.16196   0.55497   1.000
    H23     H    0.71223   0.16196   0.55497   1.000
    H24     H    0.24220   0.08903   0.60466   1.000
    H25     H    0.74221   0.08904   0.60466   1.000
    H26     H    0.35272   0.13157   0.51830   1.000
    H27     H    0.85272   0.13157   0.51830   1.000
    H28     H    0.31091   0.21294   0.49330   1.000
    H29     H    0.81091   0.21295   0.49300   1.000
    H30     H    0.41280   0.30546   0.53567   1.000
    H31     H    0.91281   0.30547   0.53567   1.000
    H32     H    0.44275   0.23914   0.47860   1.000
    H33     H    0.94276   0.23915   0.47861   1.000
    H34     H    0.47175   0.20070   0.68040   1.000
    H35     H    0.97175   0.20070   0.68040   1.000
    H36     H    0.43136   0.28327   0.65766   1.000
    H37     H    0.93136   0.28328   0.65765   1.000
    H38     H    0.33860   0.17836   0.69567   1.000
    H39     H    0.83861   0.17837   0.69560   1.000
    H40     H    0.36797   0.11014   0.63997   1.000
    H41     H    0.86797   0.11015   0.63997   1.000
    H42     H    0.03743   0.32951   0.57792   1.000
    H43     H    0.53743   0.32951   0.57792   1.000
    H44     H    0.06972   0.25321   0.62080   1.000
    H45     H    0.56973   0.25321   0.62080   1.000
    H46     H    0.02436   0.13831   0.49240   1.000
    H47     H    0.52436   0.13831   0.49240   1.000
    H48     H    0.10196   0.12133   0.39232   1.000
    H49     H    0.60197   0.12132   0.39232   1.000
    H50     H    0.23294   0.33144   0.42000   1.000
    H51     H    0.73294   0.33144   0.42899   1.000
    H52     H    0.16044   0.35828   0.52674   1.000
    H53     H    0.66044   0.35828   0.52670   1.000
    H54     H    0.34976   0.44752   0.26079   1.000
    H55     H    0.84977   0.44752   0.26079   1.000
    H56     H    0.05931   0.56900   0.31259   1.000
    H57     H    0.55932   0.56900   0.31260   1.000
    H58     H    0.47885   0.34734   0.40450   1.000
    H59     H    0.97885   0.34734   0.40451   1.000
    H60     H    0.16682   0.53143   0.35149   1.000
    H61     H    0.66682   0.53143   0.35149   1.000
    H62     H    0.11795   0.57730   0.41226   1.000
    H63     H    0.61795   0.57730   0.41226   1.000
    H64     H    0.27659   0.48254   0.38130   1.000
    H65     H    0.77659   0.48254   0.38130   1.000
    H66     H    0.13297   0.53978   0.53450   1.000
    H67     H    0.63297   0.53978   0.53450   1.000
    H68     H    0.19761   0.38057   0.25646   1.000
    H69     H    0.69761   0.38057   0.25646   1.000
    H70     H    0.12058   0.43250   0.17101   1.000
    H71     H    0.62058   0.43250   0.17101   1.000
    H72     H    0.99433   0.20387   0.15992   1.000
    H73     H    0.49433   0.20387   0.15992   1.000
    H74     H    0.07614   0.16072   0.24767   1.000
    H75     H    0.57614   0.16072   0.24768   1.000
    H76     H    0.03786   0.33779   0.05483   1.000
    H77     H    0.53787   0.33779   0.05483   1.000
    H78     H    0.00796   0.41082   0.10444   1.000
    H79     H    0.50797   0.41082   0.10444   1.000
    H80     H    0.39732   0.36816   0.01810   1.000
    H81     H    0.89732   0.36816   0.01816   1.000
    H82     H    0.43913   0.28675   0.99322   1.000
    H83     H    0.93913   0.28676   0.99322   1.000
    H84     H    0.33728   0.19429   0.03570   1.000
    H85     H    0.83728   0.19430   0.03570   1.000
    H86     H    0.30727   0.26051   0.97862   1.000
    H87     H    0.80727   0.26052   0.97862   1.000
    H88     H    0.27847   0.29928   0.18039   1.000
    H89     H    0.77847   0.29928   0.18000   1.000
    H90     H    0.31885   0.21668   0.15772   1.000
    H91     H    0.81885   0.21667   0.15770   1.000
    H92     H    0.56088   0.71325   0.00670   1.000
    H93     H    0.16273   0.80571   0.96422   1.000
    H94     H    0.66273   0.80571   0.96422   1.000
    H95     H    0.19274   0.73949   0.02135   1.000
    H96     H    0.41164   0.32166   0.19557   1.000
    H97     H    0.91164   0.32166   0.19558   1.000
    H98     H    0.38220   0.38978   0.13982   1.000
    H99     H    0.88220   0.38978   0.13980   1.000
    H100    H    0.21262   0.17036   0.07801   1.000
    H101    H    0.71262   0.17036   0.07801   1.000
    H102    H    0.18041   0.24674   0.12084   1.000
    H103    H    0.68041   0.24674   0.12084   1.000
    H104    H    0.22586   0.36147   0.99233   1.000
    H105    H    0.72586   0.36147   0.99230   1.000
    H106    H    0.14824   0.37847   0.89225   1.000
    H107    H    0.64824   0.37848   0.89225   1.000
    H108    H    0.01706   0.16854   0.92906   1.000
    H109    H    0.51706   0.16853   0.92900   1.000
    H110    H    0.08954   0.14169   0.02683   1.000
    H111    H    0.58954   0.14168   0.02683   1.000
    H112    H    0.09981   0.94757   0.23918   1.000
    H113    H    0.59981   0.94757   0.23918   1.000
    H114    H    0.30939   0.06895   0.18739   1.000
    H115    H    0.80938   0.06896   0.18739   1.000
    H116    H    0.22881   0.84733   0.09547   1.000
    H117    H    0.72881   0.84733   0.09547   1.000
    H118    H    0.41687   0.03127   0.14853   1.000
    H119    H    0.91687   0.03128   0.14853   1.000
    H120    H    0.36802   0.07725   0.08780   1.000
    H121    H    0.86802   0.07725   0.08780   1.000
    H122    H    0.02665   0.98251   0.11867   1.000
    H123    H    0.52666   0.98251   0.11867   1.000
    C124    C    0.16645   0.27959   0.72899   1.000
    C125    C    0.66645   0.27959   0.72899   1.000
    C126    C    0.24163   0.15294   0.60089   1.000
    C127    C    0.74163   0.15294   0.60089   1.000
    C128    C    0.34615   0.19258   0.53079   1.000
    H129    H    0.38293   0.03972   0.96551   1.000
    H130    H    0.88294   0.03972   0.96551   1.000
    H131    H    0.44749   0.88064   0.24344   1.000
    H132    H    0.94749   0.88064   0.24344   1.000
    H133    H    0.37042   0.93262   0.32879   1.000
    H134    H    0.87042   0.93262   0.32879   1.000
    H135    H    0.24422   0.70398   0.33998   1.000
    H136    H    0.74422   0.70398   0.33998   1.000
    H137    H    0.32606   0.66077   0.25231   1.000
    H138    H    0.82606   0.66077   0.25231   1.000
    H139    H    0.28777   0.83804   0.44500   1.000
    H140    H    0.78777   0.83805   0.44500   1.000
    H141    H    0.25780   0.91098   0.39532   1.000
    H142    H    0.75780   0.91098   0.39532   1.000
    H143    H    0.14729   0.86844   0.48167   1.000
    H144    H    0.64729   0.86844   0.48160   1.000
    H145    H    0.18910   0.78706   0.50668   1.000
    H146    H    0.68910   0.78706   0.50668   1.000
    H147    H    0.08719   0.69455   0.46430   1.000
    H148    H    0.58720   0.69455   0.46430   1.000
    H149    H    0.05725   0.76087   0.52136   1.000
    H150    H    0.55725   0.76087   0.52136   1.000
    H151    H    0.02825   0.79933   0.31957   1.000
    H152    H    0.52825   0.79933   0.31957   1.000
    H153    H    0.06864   0.71675   0.34232   1.000
    H154    H    0.56864   0.71675   0.34232   1.000
    H155    H    0.16140   0.82165   0.30431   1.000
    H156    H    0.66140   0.82165   0.30431   1.000
    H157    H    0.13204   0.88987   0.36001   1.000
    H158    H    0.63204   0.88987   0.36000   1.000
    H159    H    0.46257   0.67051   0.42205   1.000
    H160    H    0.96257   0.67051   0.42200   1.000
    H161    H    0.43028   0.74681   0.37918   1.000
    H162    H    0.93029   0.74682   0.37918   1.000
    H163    H    0.47564   0.86171   0.50758   1.000
    H164    H    0.97564   0.86171   0.50758   1.000
    H165    H    0.39804   0.87869   0.60766   1.000
    H166    H    0.89804   0.87869   0.60766   1.000
    H167    H    0.26706   0.66858   0.57098   1.000
    H168    H    0.76707   0.66858   0.57098   1.000
    H169    H    0.33956   0.64174   0.47324   1.000
    H170    H    0.83956   0.64174   0.47320   1.000
    H171    H    0.15024   0.55248   0.73918   1.000
    H172    H    0.65024   0.55249   0.73919   1.000
    H173    H    0.44068   0.43101   0.68738   1.000
    H174    H    0.94069   0.43101   0.68738   1.000
    H175    H    0.02115   0.65267   0.59547   1.000
    H176    H    0.52115   0.65267   0.59547   1.000
    H177    H    0.33318   0.46858   0.64848   1.000
    H178    H    0.83318   0.46859   0.64849   1.000
    H179    H    0.38205   0.42272   0.58771   1.000
    H180    H    0.88205   0.42272   0.58772   1.000
    H181    H    0.22341   0.51748   0.61860   1.000
    H182    H    0.72341   0.51748   0.61868   1.000
    H183    H    0.36703   0.46024   0.46540   1.000
    H184    H    0.86703   0.46024   0.46548   1.000
    H185    H    0.30239   0.61943   0.74351   1.000
    H186    H    0.80239   0.61944   0.74352   1.000
    H187    H    0.37942   0.56750   0.82896   1.000
    H188    H    0.87942   0.56750   0.82897   1.000
    H189    H    0.50567   0.79613   0.84006   1.000
    H190    H    0.00000   0.79614   0.84006   1.000
    H191    H    0.42386   0.83929   0.75230   1.000
    H192    H    0.92386   0.83929   0.75230   1.000
    H193    H    0.46214   0.66221   0.94510   1.000
    H194    H    0.96215   0.66222   0.94515   1.000
    H195    H    0.49204   0.58918   0.89553   1.000
    H196    H    0.99204   0.58919   0.89554   1.000
    H197    H    0.10268   0.63185   0.98180   1.000
    H198    H    0.60268   0.63184   0.98182   1.000
    H199    H    0.06088   0.71325   0.00676   1.000
    C200    C    0.60097   0.54986   0.71016   1.000
    C201    C    0.04617   0.48612   0.71756   1.000
    C202    C    0.54618   0.48612   0.71756   1.000
    C203    C    0.48200   0.48166   0.68050   1.000
    C204    C    0.98201   0.48167   0.68050   1.000
    C205    C    0.47330   0.54166   0.63639   1.000
    H206    H    0.69274   0.73949   0.02135   1.000
    H207    H    0.22154   0.70072   0.81958   1.000
    H208    H    0.72154   0.70073   0.81958   1.000
    H209    H    0.18116   0.78333   0.84226   1.000
    H210    H    0.68115   0.78333   0.84226   1.000
    H211    H    0.08836   0.67835   0.80440   1.000
    H212    H    0.58837   0.67835   0.80440   1.000
    H213    H    0.11780   0.61022   0.86015   1.000
    H214    H    0.61781   0.61022   0.86015   1.000
    H215    H    0.28739   0.82965   0.92190   1.000
    H216    H    0.78738   0.82965   0.92196   1.000
    H217    H    0.31959   0.75326   0.87913   1.000
    H218    H    0.81959   0.75327   0.87910   1.000
    H219    H    0.27416   0.63853   0.00763   1.000
    H220    H    0.77416   0.63853   0.00763   1.000
    H221    H    0.35177   0.62153   0.10772   1.000
    H222    H    0.85177   0.62153   0.10772   1.000
    H223    H    0.48294   0.83148   0.07092   1.000
    H224    H    0.98294   0.83148   0.07092   1.000
    H225    H    0.41046   0.85832   0.97314   1.000
    H226    H    0.91046   0.85833   0.97314   1.000
    C227    C    0.34222   0.11004   0.83386   1.000
    C228    C    0.84222   0.11005   0.83386   1.000
    C229    C    0.35094   0.04984   0.78982   1.000
    C230    C    0.85094   0.04984   0.78982   1.000
    C231    C    0.29613   0.98613   0.78242   1.000
    C232    C    0.79613   0.98613   0.78242   1.000
    C233    C    0.23196   0.98170   0.81947   1.000
    C234    C    0.73196   0.98170   0.81947   1.000
    C235    C    0.22329   0.04167   0.86359   1.000
    C236    C    0.72329   0.04167   0.86359   1.000
    C237    C    0.27823   0.10591   0.87042   1.000
    C238    C    0.77823   0.10591   0.87042   1.000
    C239    C    0.10755   0.97544   0.90106   1.000
    C240    C    0.60755   0.97544   0.90106   1.000
    C241    C    0.05150   0.98712   0.95190   1.000
    C242    C    0.55151   0.98712   0.95191   1.000
    C243    C    0.48518   0.00938   0.93334   1.000
    C244    C    0.98519   0.00938   0.93334   1.000
    C245    C    0.06578   0.97775   0.01909   1.000
    C246    C    0.56579   0.97775   0.01909   1.000
    C247    C    0.09850   0.15633   0.73416   1.000
    C248    C    0.59850   0.15633   0.73416   1.000
    C249    C    0.14121   0.12836   0.68620   1.000
    C250    C    0.64121   0.12836   0.68620   1.000
    C251    C    0.19808   0.17890   0.65729   1.000
    C252    C    0.69808   0.17891   0.65729   1.000
    C253    C    0.21099   0.25570   0.68063   1.000
    C254    C    0.71099   0.25570   0.68063   1.000
    O255    O    0.41308   0.54306   0.59740   1.000
    O256    O    0.91309   0.54306   0.59740   1.000
    C257    C    0.84615   0.19259   0.53079   1.000
    C258    C    0.41992   0.24345   0.52809   1.000
    C259    C    0.91992   0.24346   0.52809   1.000
    C260    C    0.43636   0.22235   0.64375   1.000
    C261    C    0.93637   0.22236   0.64375   1.000
    C262    C    0.36223   0.17256   0.64661   1.000
    C263    C    0.86223   0.17256   0.64661   1.000
    C264    C    0.04014   0.26580   0.57599   1.000
    C265    C    0.54015   0.26580   0.57599   1.000
    C266    C    0.08549   0.25013   0.51732   1.000
    C267    C    0.58549   0.25013   0.51732   1.000
    C268    C    0.07030   0.18217   0.47938   1.000
    C269    C    0.57031   0.18216   0.47938   1.000
    C270    C    0.11270   0.17207   0.42459   1.000
    C271    C    0.61270   0.17207   0.42459   1.000
    C272    C    0.18639   0.29004   0.44463   1.000
    C273    C    0.68639   0.29004   0.44463   1.000
    C274    C    0.14579   0.30418   0.49933   1.000
    C275    C    0.64579   0.30418   0.49933   1.000
    C276    C    0.40778   0.38995   0.33386   1.000
    C277    C    0.90779   0.38996   0.33386   1.000
    C278    C    0.39903   0.45015   0.28982   1.000
    C279    C    0.89904   0.45015   0.28982   1.000
    C280    C    0.45382   0.51389   0.28242   1.000
    C281    C    0.95383   0.51389   0.28242   1.000
    C282    C    0.01799   0.51835   0.31948   1.000
    C283    C    0.51800   0.51835   0.31948   1.000
    C284    C    0.02670   0.45836   0.36359   1.000
    C285    C    0.52670   0.45836   0.36359   1.000
    C286    C    0.47178   0.39411   0.37042   1.000
    C287    C    0.97179   0.39411   0.37042   1.000
    C288    C    0.14241   0.52465   0.40110   1.000
    C289    C    0.64242   0.52466   0.40110   1.000
    C290    C    0.19848   0.51295   0.45190   1.000
    C291    C    0.69848   0.51296   0.45193   1.000
    C292    C    0.26478   0.49065   0.43334   1.000
    C293    C    0.76478   0.49065   0.43334   1.000
    C294    C    0.18424   0.52230   0.51911   1.000
    C295    C    0.68424   0.52230   0.51911   1.000
    C296    C    0.15162   0.34361   0.23400   1.000
    C297    C    0.65162   0.34361   0.23409   1.000
    C298    C    0.10893   0.37155   0.18612   1.000
    C299    C    0.60893   0.37155   0.18612   1.000
    C300    C    0.05206   0.32099   0.15717   1.000
    C301    C    0.55206   0.32099   0.15717   1.000
    C302    C    0.03913   0.24421   0.18055   1.000
    C303    C    0.53913   0.24421   0.18055   1.000
    C304    C    0.08364   0.22036   0.22896   1.000
    C305    C    0.58364   0.22036   0.22896   1.000
    C306    C    0.00850   0.34690   0.10074   1.000
    C307    C    0.50851   0.34690   0.10074   1.000
    C308    C    0.40392   0.30717   0.03071   1.000
    C309    C    0.90392   0.30718   0.03071   1.000
    C310    C    0.33015   0.25629   0.02811   1.000
    C311    C    0.83016   0.25629   0.02811   1.000
    C312    C    0.31381   0.27757   0.14374   1.000
    C313    C    0.81381   0.27757   0.14370   1.000
    C314    C    0.38795   0.32738   0.14652   1.000
    C315    C    0.88795   0.32738   0.14653   1.000
    C316    C    0.20995   0.23407   0.07604   1.000
    C317    C    0.70995   0.23407   0.07604   1.000
    C318    C    0.16461   0.24974   0.01735   1.000
    C319    C    0.66461   0.24974   0.01735   1.000
    C320    C    0.17986   0.31766   0.97934   1.000
    C321    C    0.67986   0.31766   0.97934   1.000
    C322    C    0.13746   0.32776   0.92455   1.000
    C323    C    0.63746   0.32776   0.92455   1.000
    C324    C    0.06365   0.20990   0.94466   1.000
    C325    C    0.56365   0.20990   0.94466   1.000
    C326    C    0.10424   0.19575   0.99939   1.000
    C327    C    0.60425   0.19575   0.99939   1.000
    C328    C    0.15778   0.88997   0.16612   1.000
    C329    C    0.65778   0.88997   0.16612   1.000
    C330    C    0.14906   0.95017   0.21010   1.000
    C331    C    0.64907   0.95017   0.21015   1.000
    C332    C    0.20387   0.01388   0.21756   1.000
    C333    C    0.70387   0.01388   0.21756   1.000
    C334    C    0.26805   0.01832   0.18050   1.000
    C335    C    0.76805   0.01832   0.18050   1.000
    C336    C    0.27671   0.95834   0.13639   1.000
    C337    C    0.77672   0.95834   0.13639   1.000
    C338    C    0.22177   0.89410   0.12955   1.000
    C339    C    0.72177   0.89411   0.12955   1.000
    C340    C    0.39245   0.02457   0.09891   1.000
    C341    C    0.89246   0.02457   0.09891   1.000
    C342    C    0.44849   0.01289   0.04807   1.000
    C343    C    0.94850   0.01289   0.04807   1.000
    C344    C    0.01481   0.99063   0.06664   1.000
    C345    C    0.51482   0.99063   0.06664   1.000
    C346    C    0.43421   0.02227   0.98088   1.000
    C347    C    0.93422   0.02226   0.98080   1.000
    C348    C    0.40150   0.84368   0.26581   1.000
    C349    C    0.90150   0.84368   0.26581   1.000
    C350    C    0.35879   0.87166   0.31372   1.000
    C351    C    0.85879   0.87166   0.31372   1.000
    C352    C    0.30192   0.82111   0.34268   1.000
    C353    C    0.80192   0.82111   0.34268   1.000
    C354    C    0.28901   0.74431   0.31930   1.000
    C355    C    0.78901   0.74431   0.31935   1.000
    C356    C    0.33355   0.72042   0.27098   1.000
    C357    C    0.83355   0.72042   0.27098   1.000
    C358    C    0.25838   0.84707   0.39900   1.000
    C359    C    0.75838   0.84707   0.39900   1.000
    C360    C    0.15385   0.80743   0.46919   1.000
    C361    C    0.65385   0.80743   0.46919   1.000
    C362    C    0.08008   0.75656   0.47188   1.000
    C363    C    0.58009   0.75656   0.47188   1.000
    C364    C    0.06363   0.77767   0.35620   1.000
    C365    C    0.56364   0.77767   0.35623   1.000
    C366    C    0.13778   0.82746   0.35330   1.000
    C367    C    0.63778   0.82746   0.35337   1.000
    C368    C    0.45985   0.73422   0.42399   1.000
    C369    C    0.95986   0.73422   0.42399   1.000
    C370    C    0.41452   0.74988   0.48266   1.000
    C371    C    0.91452   0.74989   0.48266   1.000
    C372    C    0.42970   0.81785   0.52060   1.000
    C373    C    0.92970   0.81785   0.52060   1.000
    C374    C    0.38730   0.82794   0.57539   1.000
    C375    C    0.88730   0.82794   0.57530   1.000
    C376    C    0.31361   0.70998   0.55535   1.000
    C377    C    0.81361   0.70998   0.55535   1.000
    C378    C    0.35421   0.69584   0.50060   1.000
    C379    C    0.85421   0.69584   0.50060   1.000
    C380    C    0.09222   0.61006   0.66612   1.000
    C381    C    0.59222   0.61006   0.66612   1.000
    C382    C    0.10096   0.54986   0.71016   1.000
    C383    C    0.97330   0.54166   0.63639   1.000
    C384    C    0.02822   0.60590   0.62955   1.000
    C385    C    0.52822   0.60590   0.62955   1.000
    C386    C    0.35758   0.47536   0.59887   1.000
    C387    C    0.85759   0.47536   0.59888   1.000
    C388    C    0.30152   0.48706   0.54805   1.000
    C389    C    0.80152   0.48707   0.54805   1.000
    C390    C    0.23522   0.50937   0.56664   1.000
    C391    C    0.73522   0.50937   0.56664   1.000
    C392    C    0.31576   0.47771   0.48087   1.000
    C393    C    0.81576   0.47771   0.48087   1.000
    C394    C    0.34839   0.65640   0.76589   1.000
    C395    C    0.84839   0.65640   0.76589   1.000
    C396    C    0.39108   0.62845   0.81385   1.000
    C397    C    0.89108   0.62846   0.81385   1.000
    C398    C    0.44794   0.67902   0.84281   1.000
    C399    C    0.94795   0.67902   0.84281   1.000
    C400    C    0.46088   0.75580   0.81943   1.000
    C401    C    0.96088   0.75580   0.81943   1.000
    C402    C    0.41636   0.77965   0.77100   1.000
    C403    C    0.91636   0.77966   0.77102   1.000
    C404    C    0.49149   0.65310   0.89924   1.000
    C405    C    0.99150   0.65311   0.89924   1.000
    C406    C    0.09608   0.69283   0.96926   1.000
    C407    C    0.59609   0.69283   0.96926   1.000
    C408    C    0.16985   0.74371   0.97180   1.000
    C409    C    0.66985   0.74371   0.97187   1.000
    C410    C    0.18619   0.72243   0.85623   1.000
    C411    C    0.68619   0.72244   0.85623   1.000
    C412    C    0.11205   0.67262   0.85345   1.000
    C413    C    0.61205   0.67262   0.85345   1.000
    C414    C    0.29006   0.76593   0.92393   1.000
    C415    C    0.79005   0.76593   0.92394   1.000
    C416    C    0.33540   0.75027   0.98262   1.000
    C417    C    0.83540   0.75027   0.98262   1.000
    C418    C    0.32015   0.68235   0.02063   1.000
    C419    C    0.82015   0.68235   0.02063   1.000
    C420    C    0.36255   0.67225   0.07542   1.000
    C421    C    0.86255   0.67225   0.07542   1.000
    C422    C    0.43635   0.79011   0.05531   1.000
    C423    C    0.93635   0.79011   0.05531   1.000
    C424    C    0.39576   0.80426   0.00000   1.000
    C425    C    0.89576   0.80426   0.00000   1.000
    N426    N    0.10987   0.23122   0.75500   1.000
    N427    N    0.60987   0.23122   0.75500   1.000
    N428    N    0.31400   0.19743   0.59628   1.000
    N429    N    0.81400   0.19744   0.59628   1.000
    N430    N    0.46871   0.21889   0.57806   1.000
    N431    N    0.96872   0.21889   0.57806   1.000
    N432    N    0.16978   0.22567   0.40677   1.000
    N433    N    0.66978   0.22567   0.40677   1.000
    N434    N    0.14021   0.26875   0.25500   1.000
    N435    N    0.64021   0.26875   0.25500   1.000
    N436    N    0.43613   0.30243   0.09620   1.000
    N437    N    0.93613   0.30244   0.09620   1.000
    N438    N    0.28141   0.28094   0.07806   1.000
    N439    N    0.78141   0.28094   0.07806   1.000
    N440    N    0.08032   0.27422   0.90676   1.000
    N441    N    0.58032   0.27422   0.90676   1.000
    N442    N    0.39013   0.76879   0.24494   1.000
    N443    N    0.89013   0.76879   0.24490   1.000
    N444    N    0.18600   0.80259   0.40369   1.000
    N445    N    0.68601   0.80258   0.40369   1.000
    N446    N    0.03129   0.78113   0.42192   1.000
    N447    N    0.53129   0.78113   0.42192   1.000
    N448    N    0.33023   0.77434   0.59321   1.000
    N449    N    0.83023   0.77434   0.59321   1.000
    N450    N    0.35979   0.73126   0.74497   1.000
    N451    N    0.85979   0.73126   0.74497   1.000
    N452    N    0.06387   0.69757   0.90377   1.000
    N453    N    0.56388   0.69757   0.90377   1.000
    N454    N    0.21859   0.71907   0.92191   1.000
    N455    N    0.71859   0.71907   0.92190   1.000
    N456    N    0.41969   0.72579   0.09321   1.000
    N457    N    0.91969   0.72579   0.09321   1.000
    O458    O    0.16309   0.04309   0.90258   1.000
    O459    O    0.66309   0.04309   0.90258   1.000
    O460    O    0.08691   0.45696   0.40257   1.000
    O461    O    0.58692   0.45696   0.40250   1.000
    O462    O    0.33691   0.95692   0.09740   1.000
    O463    O    0.83692   0.95692   0.09740   1.000
loop_
    _geom_bond_atom_site_label_1
    _geom_bond_atom_site_label_2
    _geom_bond_distance
    _geom_bond_site_symmetry_2
    _ccdc_geom_bond_type
    C424   C422      1.39556      .   S
    C424   H225      1.08347  1_554   S
    C424   C416      1.39716  1_554   S
    C425   C423      1.39559      .   S
    C425   H226      1.08347  1_554   S
    C425   C417      1.39714  1_554   S
    H92    C407      1.09707  1_554   S
    H199   C406      1.09789  1_554   S
    H219   C418      1.08952      .   S
    H220   C419      1.08953      .   S
    C319   C317      1.50826      .   S
    C319   C321      1.40074  1_554   S
    C319   C327      1.40018  1_554   S
    C318   C316      1.50825      .   S
    C318   C320      1.40071  1_554   S
    C318   C326      1.40020  1_554   S
    H80    C308      1.11277      .   S
    H81    C309      1.11251      .   S
    C245   H12       1.09140      .   S
    C245   C344      1.39578      .   S
    C245   C241      1.40261  1_554   S
    C246   H13       1.09140      .   S
    C246   C345      1.39578      .   S
    C246   C242      1.40242  1_554   S
    C418   C420      1.39019      .   S
    C418   C416      1.40074  1_554   S
    C419   C421      1.39022      .   S
    C419   C417      1.40072  1_554   S
    H206   C409      1.09732  1_554   S
    H95    C408      1.09861  1_554   S
    H111   C327      1.08942  1_554   S
    H110   C326      1.08942  1_554   S
    C310   C308      1.51988      .   S
    C310   H84       1.11370      .   S
    C310   N438      1.46732      .   S
    C310   H86       1.09748  1_554   S
    C311   C309      1.51991      .   S
    C311   H85       1.11369      .   S
    C311   N439      1.46730      .   S
    C311   H87       1.09750  1_554   S
    C309   N437      1.46517      .   S
    C309   H83       1.09775  1_554   S
    C308   N436      1.46516      .   S
    C308   H82       1.09779  1_554   S
    C342   C345      1.40188  1_545   S
    C342   C340      1.50374      .   S
    C342   C346      1.40262  1_554   S
    C343   C344      1.40158  1_645   S
    C343   C341      1.50378      .   S
    C343   C347      1.40419  1_554   S
    H76    C306      1.10363      .   S
    H77    C307      1.10365      .   S
    C422   H223      1.08758      .   S
    C422   N456      1.35196      .   S
    C423   H224      1.08758      .   S
    C423   N457      1.35197      .   S
    C345   H123      1.09158      .   S
    C344   H122      1.09159      .   S
    C420   N456      1.35319      .   S
    C420   H221      1.09096      .   S
    C421   N457      1.35317      .   S
    C421   H222      1.09095      .   S
    C316   H100      1.11430      .   S
    C316   N438      1.45392      .   S
    C316   H102      1.10184      .   S
    C317   H101      1.11430      .   S
    C317   N439      1.45396      .   S
    C317   H103      1.10183      .   S
    N438   C312      1.46754      .   S
    N439   C313      1.46679      .   S
    H121   C341      1.10377      .   S
    H120   C340      1.10379      .   S
    H116   C338      1.08864      .   S
    H117   C339      1.08866      .   S
    N437   C306      1.45361  1_655   S
    N437   C315      1.46768      .   S
    N436   C307      1.45384      .   S
    N436   C314      1.46755      .   S
    O463   C341      1.44414  1_565   S
    O463   C337      1.37684      .   S
    O462   C340      1.44412  1_565   S
    O462   C336      1.37682      .   S
    C341   H119      1.10354      .   S
    C340   H118      1.10356      .   S
    C306   H78       1.11264      .   S
    C306   C300      1.51045      .   S
    C307   H79       1.11265      .   S
    C307   C301      1.51039      .   S
    C339   C337      1.40274      .   S
    C339   C329      1.39810      .   S
    C338   C336      1.40276      .   S
    C338   C328      1.39812      .   S
    C337   C335      1.39969  1_565   S
    C336   C334      1.39969  1_565   S
    H99    C315      1.11185      .   S
    H98    C314      1.11179      .   S
    C313   C315      1.51767      .   S
    C313   H91       1.11116      .   S
    C313   H89       1.09241      .   S
    C312   C314      1.51761      .   S
    C312   H90       1.11104      .   S
    C312   H88       1.09721      .   S
    C314   H96       1.09901      .   S
    C315   H97       1.09901      .   S
    C301   C303      1.39984      .   S
    C301   C299      1.39979      .   S
    C300   C302      1.39983      .   S
    C300   C298      1.39980      .   S
    H72    C302      1.08954  1_655   S
    H73    C303      1.08953      .   S
    C329   C331      1.40185      .   S
    C328   C330      1.40120      .   S
    H71    C299      1.09067      .   S
    H70    C298      1.09067      .   S
    C335   H115      1.08719      .   S
    C335   C333      1.40592      .   S
    C334   H114      1.08719      .   S
    C334   C332      1.40592      .   S
    C303   C305      1.38841      .   S
    C302   C304      1.38842      .   S
    C299   C297      1.38970      .   S
    C298   C296      1.38845      .   S
    C330   C332      1.39625  1_565   S
    C330   H112      1.08717      .   S
    C331   C333      1.39614  1_565   S
    C331   H113      1.08662      .   S
    C305   H75       1.09082      .   S
    C305   N435      1.35307      .   S
    C304   H74       1.09075      .   S
    C304   N434      1.35307      .   S
    C296   N434      1.35257      .   S
    C296   H68       1.09048      .   S
    C297   N435      1.35200      .   S
    C297   H69       1.08973      .   S
    H132   C349      1.08978      .   S
    H131   C348      1.08978      .   S
    N443   C349      1.35238      .   S
    N443   C357      1.35346      .   S
    N442   C348      1.35209      .   S
    N442   C356      1.35310      .   S
    H138   C357      1.09077      .   S
    H137   C356      1.09075      .   S
    H55    C279      1.08666      .   S
    H54    C278      1.08664      .   S
    C348   C350      1.38962      .   S
    C349   C351      1.38958      .   S
    C356   C354      1.38792      .   S
    C357   C355      1.38856      .   S
    C281   C279      1.39632      .   S
    C281   C282      1.40559  1_655   S
    C280   C278      1.39635      .   S
    C280   C283      1.40584      .   S
    C279   C277      1.40194      .   S
    C278   C276      1.40194      .   S
    H155   C366      1.09777      .   S
    H156   C367      1.09902      .   S
    H56    C282      1.08720      .   S
    H57    C283      1.08718      .   S
    C351   H134      1.09069      .   S
    C351   C353      1.39986      .   S
    C350   H133      1.09067      .   S
    C350   C352      1.39982      .   S
    C354   H135      1.08990      .   S
    C354   C352      1.40012      .   S
    C355   H136      1.08953      .   S
    C355   C353      1.39982      .   S
    C283   C285      1.39994      .   S
    C282   C284      1.39994      .   S
    H152   C365      1.09728      .   S
    H151   C364      1.09687      .   S
    C277   C287      1.39797      .   S
    C276   C286      1.39796      .   S
    H153   C364      1.11086      .   S
    H154   C365      1.11100      .   S
    C353   C359      1.50916      .   S
    C352   C358      1.50919      .   S
    H60    C288      1.10340      .   S
    H61    C289      1.10339      .   S
    C366   C364      1.51762      .   S
    C366   H157      1.11195      .   S
    C366   N444      1.46849      .   S
    C367   C365      1.51759      .   S
    C367   H158      1.11178      .   S
    C367   N445      1.46752      .   S
    C364   N446      1.46818      .   S
    C365   N447      1.46762      .   S
    C284   C287      1.40251  1_455   S
    C284   O460      1.37673      .   S
    C285   C286      1.40269      .   S
    C285   O461      1.37588      .   S
    C287   H59       1.08876      .   S
    C286   H58       1.08866      .   S
    H161   C368      1.10189      .   S
    H162   C369      1.10186      .   S
    H65    C293      1.09167      .   S
    H64    C292      1.09167      .   S
    H49    C271      1.09093      .   S
    H48    C270      1.09090      .   S
    H141   C358      1.11255      .   S
    H142   C359      1.11254      .   S
    C358   N444      1.45398      .   S
    C358   H139      1.10510      .   S
    C359   N445      1.45396      .   S
    C359   H140      1.10510      .   S
    C289   O461      1.44431      .   S
    C289   H63       1.10381      .   S
    C289   C291      1.50382      .   S
    C288   O460      1.44436      .   S
    C288   H62       1.10381      .   S
    C288   C290      1.50342      .   S
    N444   C360      1.46526      .   S
    N445   C361      1.46529      .   S
    N432   C270      1.35316      .   S
    N432   C272      1.35198      .   S
    N433   C271      1.35317      .   S
    N433   C273      1.35199      .   S
    H50    C272      1.15405      .   S
    N447   C368      1.45397      .   S
    N447   C363      1.46735      .   S
    N446   C369      1.45375  1_455   S
    N446   C362      1.46734      .   S
    H160   C369      1.11432      .   S
    H159   C368      1.11430      .   S
    C369   C371      1.50815      .   S
    C368   C370      1.50813      .   S
    C270   C268      1.39032      .   S
    C271   C269      1.39028      .   S
    H51    C273      1.08760      .   S
    C292   C290      1.40175      .   S
    C292   C392      1.39570      .   S
    C293   C291      1.40191      .   S
    C293   C393      1.39570      .   S
    C273   C275      1.38586      .   S
    C272   C274      1.38587      .   S
    C290   C294      1.40293      .   S
    C291   C295      1.40233      .   S
    H148   C363      1.11384      .   S
    H147   C362      1.11384      .   S
    H183   C392      1.09183      .   S
    H184   C393      1.09137      .   S
    C360   C362      1.51995      .   S
    C360   H143      1.11252      .   S
    C360   H145      1.09766      .   S
    C361   C363      1.51994      .   S
    C361   H144      1.11218      .   S
    C361   H146      1.09764      .   S
    C363   H150      1.09722      .   S
    C362   H149      1.09721      .   S
    H170   C379      1.08939      .   S
    H169   C378      1.08897      .   S
    H32    C258      1.09741      .   S
    H33    C259      1.09722      .   S
    C268   H46       1.08948      .   S
    C268   C266      1.40051      .   S
    C269   H47       1.08948      .   S
    C269   C267      1.40052      .   S
    C392   C388      1.40233      .   S
    C393   C389      1.40233      .   S
    C371   C379      1.39994      .   S
    C371   C373      1.40048      .   S
    C370   C378      1.39993      .   S
    C370   C372      1.40048      .   S
    H29    C257      1.10185      .   S
    H28    C128      1.09762      .   S
    C274   C266      1.40019      .   S
    C274   H52       1.08951      .   S
    C275   C267      1.40018      .   S
    C275   H53       1.08910      .   S
    C378   C376      1.38665      .   S
    C379   C377      1.38669      .   S
    H163   C372      1.08949      .   S
    H164   C373      1.08950      .   S
    C267   C265      1.50815      .   S
    C266   C264      1.50821      .   S
    H26    C128      1.11256      .   S
    H27    C257      1.11257      .   S
    C295   H67       1.09136      .   S
    C295   C391      1.39570      .   S
    C294   H66       1.09136      .   S
    C294   C390      1.39570      .   S
    C372   C374      1.39029      .   S
    C373   C375      1.38887      .   S
    C258   C128      1.51995      .   S
    C258   H30       1.11384      .   S
    C258   N430      1.46748      .   S
    C259   C257      1.51996      .   S
    C259   H31       1.11386      .   S
    C259   N431      1.46747      .   S
    C128   N428      1.46511      .   S
    C257   N429      1.46513      .   S
    C388   C390      1.40191      .   S
    C388   C386      1.50369      .   S
    C389   C391      1.40192      .   S
    C389   C387      1.50384      .   S
    H23    C127      1.10371      .   S
    H22    C126      1.10370      .   S
    C376   H167      1.08755      .   S
    C376   N448      1.35197      .   S
    C377   H168      1.08755      .   S
    C377   N449      1.35195      .   S
    C390   H181      1.09010      .   S
    C391   H182      1.09167      .   S
    C375   N449      1.35364      .   S
    C375   H166      1.09196      .   S
    C374   N448      1.35317      .   S
    C374   H165      1.09089      .   S
    C265   H43       1.11430      .   S
    C265   N430      1.45398      .   S
    C265   H45       1.10186      .   S
    C264   H42       1.11428      .   S
    C264   N431      1.45375  1_455   S
    C264   H44       1.10186      .   S
    N431   C261      1.46765      .   S
    N430   C260      1.46765      .   S
    H179   C386      1.10379      .   S
    H180   C387      1.10380      .   S
    H175   C384      1.08867      .   S
    H176   C385      1.08867      .   S
    N428   C126      1.45388      .   S
    N428   C262      1.46763      .   S
    N429   C127      1.45387      .   S
    N429   C263      1.46765      .   S
    O256   C387      1.44438      .   S
    O256   C383      1.37684      .   S
    O255   C386      1.44434      .   S
    O255   C205      1.37682      .   S
    C386   H177      1.10340      .   S
    C387   H178      1.10341      .   S
    C127   H25       1.11267      .   S
    C127   C252      1.51043      .   S
    C126   H24       1.11266      .   S
    C126   C251      1.51044      .   S
    C384   C383      1.40253  1_455   S
    C384   C380      1.39807      .   S
    C385   C205      1.40271      .   S
    C385   C381      1.39807      .   S
    C205   C203      1.39997      .   S
    C383   C204      1.39995      .   S
    H40    C262      1.11179      .   S
    H41    C263      1.11179      .   S
    C260   C262      1.51758      .   S
    C260   H36       1.11100      .   S
    C260   H34       1.09713      .   S
    C261   C263      1.51762      .   S
    C261   H37       1.11097      .   S
    C261   H35       1.09710      .   S
    C263   H39       1.09775      .   S
    C262   H38       1.09904      .   S
    C251   C253      1.39986      .   S
    C251   C249      1.39946      .   S
    C252   C254      1.39987      .   S
    C252   C250      1.39946      .   S
    H18    C253      1.08957      .   S
    H19    C254      1.08956      .   S
    C381   C200      1.40195      .   S
    C380   C382      1.40199      .   S
    H16    C249      1.09045      .   S
    H17    C250      1.09045      .   S
    C204   H174      1.08717      .   S
    C204   C201      1.40561  1_655   S
    C203   H173      1.08719      .   S
    C203   C202      1.40585      .   S
    C253   C124      1.38845      .   S
    C254   C125      1.38843      .   S
    C249   C247      1.39031      .   S
    C250   C248      1.39029      .   S
    C200   C202      1.39635      .   S
    C200   H172      1.08663      .   S
    C382   C201      1.39633      .   S
    C382   H171      1.08653      .   S
    C125   H21       1.09076      .   S
    C125   N427      1.35291      .   S
    C124   H20       1.09076      .   S
    C124   N426      1.35293      .   S
    C248   N427      1.35190      .   S
    C248   H15       1.08972      .   S
    C247   N426      1.35190      .   S
    C247   H14       1.08973      .   S
    H185   C394      1.08980      .   S
    H186   C395      1.08972      .   S
    N450   C394      1.35208      .   S
    N450   C402      1.35298      .   S
    N451   C395      1.35206      .   S
    N451   C403      1.35314      .   S
    H191   C402      1.09069      .   S
    H192   C403      1.09080      .   S
    H0     C229      1.09539      .   S
    H1     C230      1.08662      .   S
    C395   C397      1.38961      .   S
    C394   C396      1.38959      .   S
    C402   C400      1.38871      .   S
    C403   C401      1.38846      .   S
    C231   C229      1.39611  1_565   S
    C231   C233      1.40583      .   S
    C232   C230      1.39611  1_565   S
    C232   C234      1.40583      .   S
    C230   C228      1.40198      .   S
    C229   C227      1.40198      .   S
    H211   C412      1.09900      .   S
    H212   C413      1.09901      .   S
    H3     C234      1.08717      .   S
    H2     C233      1.08717      .   S
    C396   H187      1.09068      .   S
    C396   C398      1.39985      .   S
    C397   H188      1.09073      .   S
    C397   C399      1.39987      .   S
    C400   H189      1.08952      .   S
    C400   C398      1.39987      .   S
    C401   H190      1.02157  1_655   S
    C401   C399      1.39983      .   S
    C234   C236      1.39982  1_565   S
    C233   C235      1.39982  1_565   S
    H208   C411      1.09719      .   S
    H207   C410      1.09720      .   S
    C228   C238      1.39801      .   S
    C227   C237      1.39801      .   S
    H209   C410      1.11100      .   S
    H210   C411      1.11099      .   S
    C398   C404      1.51042      .   S
    C399   C405      1.51046      .   S
    H6     C239      1.10336      .   S
    H7     C240      1.10338      .   S
    C413   C411      1.51762      .   S
    C413   H214      1.11178      .   S
    C413   N453      1.46754      .   S
    C412   C410      1.51763      .   S
    C412   H213      1.11179      .   S
    C412   N452      1.46754      .   S
    C410   N454      1.46754      .   S
    C411   N455      1.46734      .   S
    C235   C237      1.40275      .   S
    C235   O458      1.37683      .   S
    C236   C238      1.40275      .   S
    C236   O459      1.37681      .   S
    C237   H4        1.08866      .   S
    C238   H5        1.08865      .   S
    H218   C415      1.10249      .   S
    H217   C414      1.10183      .   S
    H11    C244      1.09159      .   S
    H10    C243      1.09157      .   S
    H107   C323      1.09093      .   S
    H106   C322      1.09093      .   S
    H195   C404      1.11266      .   S
    H196   C405      1.11264      .   S
    C405   N452      1.45358  1_655   S
    C405   H194      1.10364      .   S
    C404   N453      1.45382      .   S
    C404   H193      1.10280      .   S
    C239   O458      1.44415  1_565   S
    C239   H8        1.10383      .   S
    C239   C241      1.50378      .   S
    C240   O459      1.44413  1_565   S
    C240   H9        1.10383      .   S
    C240   C242      1.50387      .   S
    N452   C406      1.46517      .   S
    N453   C407      1.46517      .   S
    N440   C322      1.35321      .   S
    N440   C324      1.35195      .   S
    N441   C323      1.35319      .   S
    N441   C325      1.35195      .   S
    N455   C415      1.45395      .   S
    N455   C409      1.46756      .   S
    H215   C414      1.11435      .   S
    N454   C414      1.45396      .   S
    N454   C408      1.46645      .   S
    H216   C415      1.11431      .   S
    C414   C416      1.50826      .   S
    C415   C417      1.50812      .   S
    C322   C320      1.39018      .   S
    C323   C321      1.39021      .   S
    H109   C325      1.08789      .   S
    H108   C324      1.08753      .   S
    C244   C241      1.40153  1_645   S
    C244   C347      1.39452      .   S
    C243   C242      1.40190  1_545   S
    C243   C346      1.39563      .   S
    C324   C326      1.38612      .   S
    C325   C327      1.38615      .   S
    H93    C408      1.11366      .   S
    H94    C409      1.11387      .   S
    H129   C346      1.09135      .   S
    H130   C347      1.09088      .   S
    C406   C408      1.51989      .   S
    C406   H197      1.11245      .   S
    C407   C409      1.51991      .   S
    C407   H198      1.11255      .   S
    C321   H105      1.08933      .   S
    C320   H104      1.08949      .   S
