# CIF file generated by openbabel 2.4.90, see http://openbabel.sf.net
data_I
_chemical_name_common ''
_cell_length_a 18.655
_cell_length_b 17.343
_cell_length_c 20.282
_cell_angle_alpha 89.999
_cell_angle_beta 90.009
_cell_angle_gamma 98.643
_space_group_name_H-M_alt 'P 1'
_space_group_name_Hall 'P 1'
loop_
    _symmetry_equiv_pos_as_xyz
    x,y,z
loop_
    _atom_site_label
    _atom_site_type_symbol
    _atom_site_fract_x
    _atom_site_fract_y
    _atom_site_fract_z
    _atom_site_occupancy
    Zn0     Zn   0.53148   0.27338   0.81630   1.000
    Zn1     Zn   0.21856   0.22660   0.31636   1.000
    Zn2     Zn   0.71856   0.22661   0.31636   1.000
    Zn3     Zn   0.46853   0.72664   0.18362   1.000
    Zn4     Zn   0.96854   0.72664   0.18362   1.000
    Zn5     Zn   0.28145   0.77341   0.68362   1.000
    Zn6     Zn   0.78146   0.77341   0.68362   1.000
    Zn7     Zn   0.03148   0.27337   0.81630   1.000
    C8      C    0.05775   0.42171   0.76443   1.000
    C9      C    0.55776   0.42171   0.76443   1.000
    C10     C    0.40117   0.17910   0.84268   1.000
    C11     C    0.90117   0.17910   0.84268   1.000
    C12     C    0.30769   0.92172   0.73555   1.000
    C13     C    0.80769   0.92172   0.73555   1.000
    O14     O    0.14314   0.73326   0.61896   1.000
    O15     O    0.64314   0.73326   0.61890   1.000
    O16     O    0.11538   0.42654   0.79692   1.000
    O17     O    0.61538   0.42655   0.79692   1.000
    O18     O    0.00572   0.36265   0.76672   1.000
    O19     O    0.50572   0.36265   0.76672   1.000
    C20     C    0.34885   0.32091   0.34270   1.000
    C21     C    0.84885   0.32091   0.34270   1.000
    C22     C    0.44225   0.57830   0.23555   1.000
    C23     C    0.94225   0.57830   0.23555   1.000
    C24     C    0.09883   0.82092   0.15730   1.000
    C25     C    0.59883   0.82092   0.15730   1.000
    C26     C    0.19232   0.07829   0.26443   1.000
    C27     C    0.69232   0.07829   0.26443   1.000
    C28     C    0.15116   0.67911   0.65720   1.000
    C29     C    0.65116   0.67911   0.65720   1.000
    O30     O    0.45995   0.17644   0.80813   1.000
    O31     O    0.95995   0.17644   0.80813   1.000
    O32     O    0.39317   0.23325   0.88099   1.000
    O33     O    0.89318   0.23325   0.88099   1.000
    O34     O    0.36531   0.92655   0.70308   1.000
    O35     O    0.86532   0.92655   0.70308   1.000
    O36     O    0.25566   0.86266   0.73326   1.000
    O37     O    0.75566   0.86266   0.73326   1.000
    O38     O    0.29006   0.32354   0.30814   1.000
    O39     O    0.79007   0.32355   0.30814   1.000
    O40     O    0.35686   0.26675   0.38101   1.000
    O41     O    0.85686   0.26675   0.38101   1.000
    O42     O    0.38463   0.57347   0.20305   1.000
    O43     O    0.88463   0.57347   0.20300   1.000
    O44     O    0.49429   0.63736   0.23326   1.000
    O45     O    0.99429   0.63736   0.23326   1.000
    O46     O    0.04005   0.82357   0.19185   1.000
    O47     O    0.54005   0.82357   0.19185   1.000
    O48     O    0.10683   0.76676   0.11899   1.000
    O49     O    0.60683   0.76676   0.11899   1.000
    O50     O    0.13469   0.07346   0.29690   1.000
    O51     O    0.63469   0.07346   0.29690   1.000
    O52     O    0.24435   0.13735   0.26672   1.000
    O53     O    0.74435   0.13735   0.26672   1.000
    O54     O    0.20994   0.67647   0.69184   1.000
    O55     O    0.70994   0.67647   0.69184   1.000
loop_
    _geom_bond_atom_site_label_1
    _geom_bond_atom_site_label_2
    _geom_bond_distance
    _geom_bond_site_symmetry_2
    _ccdc_geom_bond_type
    O49    C25       1.24514      .   S
    O48    C24       1.24518      .   S
    C25    O47       1.30804      .   S
    C24    O46       1.30804      .   S
    Zn3    O47       1.99002      .   S
    Zn3    O44       1.96604      .   S
    Zn4    O46       1.98988  1_655   S
    Zn4    O45       1.96604      .   S
    O43    C23       1.25341      .   S
    O42    C22       1.25285      .   S
    O44    C22       1.30180      .   S
    O45    C23       1.30178      .   S
    C26    O52       1.30174      .   S
    C26    O50       1.25281      .   S
    C27    O53       1.30174      .   S
    C27    O51       1.25278      .   S
    O52    Zn1       1.96609      .   S
    O53    Zn2       1.96609      .   S
    O39    Zn2       1.98988      .   S
    O39    C21       1.30796      .   S
    O38    Zn1       1.98987      .   S
    O38    C20       1.30799      .   S
    C21    O41       1.24517      .   S
    C20    O40       1.24514      .   S
    O15    C29       1.24500      .   S
    O14    C28       1.24423      .   S
    C28    O54       1.30887      .   S
    C29    O55       1.30886      .   S
    Zn5    O54       1.98996      .   S
    Zn5    O36       1.96611      .   S
    Zn6    O55       1.98993      .   S
    Zn6    O37       1.96610      .   S
    O34    C12       1.25282      .   S
    O35    C13       1.25286      .   S
    O37    C13       1.30174      .   S
    O36    C12       1.30173      .   S
    C8     O18       1.30178      .   S
    C8     O16       1.25282      .   S
    C9     O19       1.30178      .   S
    C9     O17       1.25279      .   S
    O19    Zn0       1.96545      .   S
    O18    Zn7       1.96543      .   S
    O30    Zn0       1.98998      .   S
    O30    C10       1.30805      .   S
    O31    Zn7       1.98984  1_655   S
    O31    C11       1.30805      .   S
    C11    O33       1.24514      .   S
    C10    O32       1.24514      .   S
