# CIF file generated by openbabel 2.4.90, see http://openbabel.sf.net
data_I
_chemical_name_common ''
_cell_length_a 18.655
_cell_length_b 17.343
_cell_length_c 20.282
_cell_angle_alpha 89.999
_cell_angle_beta 90.009
_cell_angle_gamma 98.643
_space_group_name_H-M_alt 'P 1'
_space_group_name_Hall 'P 1'
loop_
    _symmetry_equiv_pos_as_xyz
    x,y,z
loop_
    _atom_site_label
    _atom_site_type_symbol
    _atom_site_fract_x
    _atom_site_fract_y
    _atom_site_fract_z
    _atom_site_occupancy
    Zn0     Zn   0.53148   0.27338   0.81630   1.000
    Zn1     Zn   0.21856   0.22660   0.31636   1.000
    Zn2     Zn   0.71856   0.22661   0.31636   1.000
    Zn3     Zn   0.46853   0.72664   0.18362   1.000
    Zn4     Zn   0.96854   0.72664   0.18362   1.000
    Zn5     Zn   0.28145   0.77341   0.68362   1.000
    Zn6     Zn   0.78146   0.77341   0.68362   1.000
    Zn7     Zn   0.03148   0.27337   0.81630   1.000
    C8      C    0.05775   0.42171   0.76443   1.000
    C9      C    0.55776   0.42171   0.76443   1.000
    C10     C    0.40117   0.17910   0.84268   1.000
    C11     C    0.90117   0.17910   0.84268   1.000
    C12     C    0.30769   0.92172   0.73555   1.000
    C13     C    0.80769   0.92172   0.73555   1.000
    O14     O    0.14314   0.73326   0.61896   1.000
    O15     O    0.64314   0.73326   0.61890   1.000
    O16     O    0.11538   0.42654   0.79692   1.000
    O17     O    0.61538   0.42655   0.79692   1.000
    O18     O    0.00572   0.36265   0.76672   1.000
    O19     O    0.50572   0.36265   0.76672   1.000
    C20     C    0.34885   0.32091   0.34270   1.000
    C21     C    0.84885   0.32091   0.34270   1.000
    C22     C    0.44225   0.57830   0.23555   1.000
    C23     C    0.94225   0.57830   0.23555   1.000
    C24     C    0.09883   0.82092   0.15730   1.000
    C25     C    0.59883   0.82092   0.15730   1.000
    C26     C    0.19232   0.07829   0.26443   1.000
    C27     C    0.69232   0.07829   0.26443   1.000
    C28     C    0.15116   0.67911   0.65720   1.000
    C29     C    0.65116   0.67911   0.65720   1.000
    O30     O    0.45995   0.17644   0.80813   1.000
    O31     O    0.95995   0.17644   0.80813   1.000
    O32     O    0.39317   0.23325   0.88099   1.000
    O33     O    0.89318   0.23325   0.88099   1.000
    O34     O    0.36531   0.92655   0.70308   1.000
    O35     O    0.86532   0.92655   0.70308   1.000
    O36     O    0.25566   0.86266   0.73326   1.000
    O37     O    0.75566   0.86266   0.73326   1.000
    O38     O    0.29006   0.32354   0.30814   1.000
    O39     O    0.79007   0.32355   0.30814   1.000
    O40     O    0.35686   0.26675   0.38101   1.000
    O41     O    0.85686   0.26675   0.38101   1.000
    O42     O    0.38463   0.57347   0.20305   1.000
    O43     O    0.88463   0.57347   0.20300   1.000
    O44     O    0.49429   0.63736   0.23326   1.000
    O45     O    0.99429   0.63736   0.23326   1.000
    O46     O    0.04005   0.82357   0.19185   1.000
    O47     O    0.54005   0.82357   0.19185   1.000
    O48     O    0.10683   0.76676   0.11899   1.000
    O49     O    0.60683   0.76676   0.11899   1.000
    O50     O    0.13469   0.07346   0.29690   1.000
    O51     O    0.63469   0.07346   0.29690   1.000
    O52     O    0.24435   0.13735   0.26672   1.000
    O53     O    0.74435   0.13735   0.26672   1.000
    O54     O    0.20994   0.67647   0.69184   1.000
    O55     O    0.70994   0.67647   0.69184   1.000
    Ts56    Ts   0.55761   0.25932   0.79587   1.000
    Ts57    Ts   0.54776   0.27366   0.84645   1.000
    Ts58    Ts   0.20230   0.22629   0.34650   1.000
    Ts59    Ts   0.19244   0.24065   0.29591   1.000
    Ts60    Ts   0.70230   0.22629   0.34650   1.000
    Ts61    Ts   0.69245   0.24065   0.29591   1.000
    Ts62    Ts   0.44240   0.74069   0.20406   1.000
    Ts63    Ts   0.45225   0.72635   0.15348   1.000
    Ts64    Ts   0.94240   0.74069   0.20405   1.000
    Ts65    Ts   0.95225   0.72636   0.15348   1.000
    Ts66    Ts   0.29771   0.77372   0.65348   1.000
    Ts67    Ts   0.30757   0.75936   0.70407   1.000
    Ts68    Ts   0.79772   0.77372   0.65348   1.000
    Ts69    Ts   0.80757   0.75936   0.70407   1.000
    Ts70    Ts   0.05761   0.25932   0.79587   1.000
    Ts71    Ts   0.04776   0.27366   0.84645   1.000
    Og72    Og   0.05389   0.44318   0.74881   1.000
    Og73    Og   0.55390   0.44318   0.74881   1.000
    Og74    Og   0.38152   0.15608   0.83974   1.000
    Og75    Og   0.88152   0.15608   0.83974   1.000
    Og76    Og   0.30383   0.94319   0.75117   1.000
    Og77    Og   0.80383   0.94319   0.75117   1.000
    Og78    Og   0.36849   0.34392   0.33975   1.000
    Og79    Og   0.86849   0.34393   0.33975   1.000
    Og80    Og   0.44611   0.55683   0.25117   1.000
    Og81    Og   0.94611   0.55683   0.25117   1.000
    Og82    Og   0.11848   0.84394   0.16024   1.000
    Og83    Og   0.61848   0.84394   0.16024   1.000
    Og84    Og   0.19617   0.05682   0.24881   1.000
    Og85    Og   0.69617   0.05682   0.24881   1.000
    Og86    Og   0.13151   0.65609   0.66017   1.000
    Og87    Og   0.63151   0.65609   0.66017   1.000
loop_
    _geom_bond_atom_site_label_1
    _geom_bond_atom_site_label_2
    _geom_bond_distance
    _geom_bond_site_symmetry_2
    _ccdc_geom_bond_type
    O49    C25       1.24514      .   S
    O48    C24       1.24518      .   S
    C25    O47       1.30804      .   S
    C24    O46       1.30804      .   S
    Zn3    O47       1.99002      .   S
    Zn3    O44       1.96604      .   S
    Zn4    O46       1.98988  1_655   S
    Zn4    O45       1.96604      .   S
    O43    C23       1.25341      .   S
    O42    C22       1.25285      .   S
    O44    C22       1.30180      .   S
    O45    C23       1.30178      .   S
    C26    O52       1.30174      .   S
    C26    O50       1.25281      .   S
    C27    O53       1.30174      .   S
    C27    O51       1.25278      .   S
    O52    Zn1       1.96609      .   S
    O53    Zn2       1.96609      .   S
    O39    Zn2       1.98988      .   S
    O39    C21       1.30796      .   S
    O38    Zn1       1.98987      .   S
    O38    C20       1.30799      .   S
    C21    O41       1.24517      .   S
    C20    O40       1.24514      .   S
    O15    C29       1.24500      .   S
    O14    C28       1.24423      .   S
    C28    O54       1.30887      .   S
    C29    O55       1.30886      .   S
    Zn5    O54       1.98996      .   S
    Zn5    O36       1.96611      .   S
    Zn6    O55       1.98993      .   S
    Zn6    O37       1.96610      .   S
    O34    C12       1.25282      .   S
    O35    C13       1.25286      .   S
    O37    C13       1.30174      .   S
    O36    C12       1.30173      .   S
    C8     O18       1.30178      .   S
    C8     O16       1.25282      .   S
    C9     O19       1.30178      .   S
    C9     O17       1.25279      .   S
    O19    Zn0       1.96545      .   S
    O18    Zn7       1.96543      .   S
    O30    Zn0       1.98998      .   S
    O30    C10       1.30805      .   S
    O31    Zn7       1.98984  1_655   S
    O31    C11       1.30805      .   S
    C11    O33       1.24514      .   S
    C10    O32       1.24514      .   S
    Zn0    Ts56      0.71028      .   S
    Zn0    Ts57      0.68245      .   S
    Zn1    Ts58      0.68205      .   S
    Zn1    Ts59      0.71019      .   S
    Zn2    Ts60      0.68207      .   S
    Zn2    Ts61      0.71021      .   S
    Zn3    Ts62      0.71043      .   S
    Zn3    Ts63      0.68217      .   S
    Zn4    Ts64      0.71028      .   S
    Zn4    Ts65      0.68219      .   S
    Zn5    Ts66      0.68204      .   S
    Zn5    Ts67      0.71013      .   S
    Zn6    Ts68      0.68203      .   S
    Zn6    Ts69      0.71011      .   S
    Zn7    Ts70      0.71030      .   S
    Zn7    Ts71      0.68247      .   S
    C8     Og72      0.50227      .   S
    C9     Og73      0.50229      .   S
    C10    Og74      0.50329      .   S
    C11    Og75      0.50329      .   S
    C12    Og76      0.50226      .   S
    C13    Og77      0.50226      .   S
    C20    Og78      0.50325      .   S
    C21    Og79      0.50326      .   S
    C22    Og80      0.50229      .   S
    C23    Og81      0.50228      .   S
    C24    Og82      0.50328      .   S
    C25    Og83      0.50328      .   S
    C26    Og84      0.50226      .   S
    C27    Og85      0.50226      .   S
    C28    Og86      0.50333      .   S
    C29    Og87      0.50332      .   S
