# CIF file generated by openbabel 2.4.90, see http://openbabel.sf.net
data_I
_chemical_name_common ''
_cell_length_a 18.655
_cell_length_b 17.343
_cell_length_c 20.282
_cell_angle_alpha 89.999
_cell_angle_beta 90.009
_cell_angle_gamma 98.643
_space_group_name_H-M_alt 'P 1'
_space_group_name_Hall 'P 1'
loop_
    _symmetry_equiv_pos_as_xyz
    x,y,z
loop_
    _atom_site_label
    _atom_site_type_symbol
    _atom_site_fract_x
    _atom_site_fract_y
    _atom_site_fract_z
    _atom_site_occupancy
    N0      N    0.00000   0.00001   0.99996   1.000
    N1      N    0.25000   0.50001   0.49998   1.000
    N2      N    0.75000   0.50001   0.49999   1.000
    N3      N    0.50000   0.00001   0.99999   1.000
    N4      N    0.85895   0.28520   0.08616   1.000
    N5      N    0.35895   0.28520   0.08617   1.000
    N6      N    0.10884   0.78534   0.41375   1.000
    N7      N    0.39117   0.21468   0.58621   1.000
    N8      N    0.89117   0.21468   0.58598   1.000
    N9      N    0.60884   0.78534   0.41375   1.000
    N10     N    0.64106   0.71481   0.91378   1.000
    N11     N    0.14092   0.71481   0.91378   1.000
    Zr12    Zr   0.49495   0.29615   0.81088   1.000
    O13     O    0.34040   0.18422   0.86500   1.000
    O14     O    0.60119   0.28783   0.89236   1.000
    O15     O    0.61294   0.26482   0.74835   1.000
    O16     O    0.44797   0.38656   0.71569   1.000
    Zr17    Zr   0.50506   0.70386   0.18909   1.000
    O18     O    0.38707   0.73519   0.25155   1.000
    O19     O    0.39879   0.71219   0.10759   1.000
    O20     O    0.55204   0.61346   0.28429   1.000
    O21     O    0.65961   0.81579   0.13496   1.000
    Zr22    Zr   0.00506   0.70386   0.18908   1.000
    O23     O    0.89882   0.71219   0.10759   1.000
    O24     O    0.88707   0.73519   0.25154   1.000
    O25     O    0.15961   0.81579   0.13496   1.000
    O26     O    0.05204   0.61346   0.28428   1.000
    Zr27    Zr   0.24491   0.79617   0.68907   1.000
    O28     O    0.36287   0.76487   0.75156   1.000
    O29     O    0.35112   0.78789   0.60758   1.000
    O30     O    0.19793   0.88657   0.78427   1.000
    O31     O    0.09038   0.68423   0.63495   1.000
    Zr32    Zr   0.99495   0.29615   0.81088   1.000
    O33     O    0.84040   0.18422   0.86500   1.000
    O34     O    0.10119   0.28783   0.89237   1.000
    O35     O    0.11293   0.26482   0.74841   1.000
    O36     O    0.94796   0.38656   0.71569   1.000
    Zr37    Zr   0.75510   0.20384   0.31089   1.000
    O38     O    0.80207   0.11345   0.21569   1.000
    O39     O    0.90963   0.31578   0.36501   1.000
    O40     O    0.63713   0.23514   0.24841   1.000
    O41     O    0.64888   0.21213   0.39239   1.000
    Zr42    Zr   0.25510   0.20384   0.31089   1.000
    O43     O    0.30207   0.11344   0.21569   1.000
    O44     O    0.40963   0.31578   0.36501   1.000
    O45     O    0.13713   0.23514   0.24841   1.000
    O46     O    0.14888   0.21213   0.39233   1.000
    Zr47    Zr   0.74491   0.79617   0.68906   1.000
    O48     O    0.69793   0.88657   0.78428   1.000
    O49     O    0.59038   0.68423   0.63494   1.000
    O50     O    0.85113   0.78789   0.60757   1.000
    O51     O    0.86284   0.76487   0.75155   1.000
loop_
    _geom_bond_atom_site_label_1
    _geom_bond_atom_site_label_2
    _geom_bond_distance
    _geom_bond_site_symmetry_2
    _ccdc_geom_bond_type
    Zr12   O13       3.40653      .   S
    N0     O13       7.20636      .   S
    Zr12   O14       2.60091      .   S
    N4     O14       6.21557  1_554   S
    Zr12   O15       2.66625      .   S
    N8     O15       6.31695      .   S
    Zr12   O16       2.71415      .   S
    N1     O16       6.23121      .   S
    Zr17   O18       2.66558      .   S
    N6     O18       6.31517      .   S
    Zr17   O19       2.60159      .   S
    N11    O19       6.21735  1_556   S
    Zr17   O20       2.71417      .   S
    N2     O20       6.23113      .   S
    Zr17   O21       3.40656      .   S
    N0     O21       7.20658  1_446   S
    Zr22   O23       2.60104  1_455   S
    N10    O23       6.21580  1_556   S
    Zr22   O24       2.66557  1_455   S
    N9     O24       6.31534      .   S
    Zr22   O25       3.40647      .   S
    N3     O25       7.20642  1_546   S
    Zr22   O26       2.71421      .   S
    N1     O26       6.23112      .   S
    Zr27   O28       2.66488      .   S
    N10    O28       6.31341      .   S
    Zr27   O29       2.60102      .   S
    N9     O29       6.21604      .   S
    Zr27   O30       2.71436      .   S
    N0     O30       6.23139  1_545   S
    Zr27   O31       3.40607      .   S
    N2     O31       7.20533  1_655   S
    Zr32   O33       3.40655      .   S
    N3     O33       7.20650      .   S
    Zr32   O34       2.60096  1_655   S
    N5     O34       6.21574  1_554   S
    Zr32   O35       2.66568  1_655   S
    N7     O35       6.31513      .   S
    Zr32   O36       2.71414      .   S
    N2     O36       6.23114      .   S
    Zr37   O38       2.71444      .   S
    N0     O38       6.23183  1_456   S
    Zr37   O39       3.40601      .   S
    N1     O39       7.20534  1_455   S
    Zr37   O40       2.66489      .   S
    N5     O40       6.31357      .   S
    Zr37   O41       2.60105      .   S
    N7     O41       6.21604      .   S
    Zr42   O43       2.71437      .   S
    N3     O43       6.23160  1_556   S
    Zr42   O44       3.40603      .   S
    N2     O44       7.20542      .   S
    Zr42   O45       2.66491      .   S
    N4     O45       6.31366  1_655   S
    Zr42   O46       2.60029      .   S
    N8     O46       6.21376  1_655   S
    Zr47   O48       2.71451      .   S
    N3     O48       6.23171  1_545   S
    Zr47   O49       3.40606      .   S
    N1     O49       7.20537      .   S
    Zr47   O50       2.60098      .   S
    N6     O50       6.21601  1_455   S
    Zr47   O51       2.66436      .   S
    N11    O51       6.31178  1_455   S
