# CIF file generated by openbabel 2.4.90, see http://openbabel.sf.net
data_I
_chemical_name_common 'VESTA_phase_1'
_cell_length_a 17.236
_cell_length_b 16.946
_cell_length_c 17.853
_cell_angle_alpha 89.935
_cell_angle_beta 90.001
_cell_angle_gamma 89.182
_space_group_name_H-M_alt 'P 1'
_space_group_name_Hall 'P 1'
loop_
    _symmetry_equiv_pos_as_xyz
    x,y,z
loop_
    _atom_site_label
    _atom_site_type_symbol
    _atom_site_fract_x
    _atom_site_fract_y
    _atom_site_fract_z
    _atom_site_occupancy
    Zn0     Zn   0.26287   0.88289   0.62700   1.000
    Zn1     Zn   0.76617   0.62000   0.37241   1.000
    Zn2     Zn   0.76299   0.38314   0.87221   1.000
    Zn3     Zn   0.26617   0.11977   0.12743   1.000
    Zn4     Zn   0.23702   0.61688   0.12777   1.000
    Zn5     Zn   0.73383   0.88025   0.87256   1.000
    Zn6     Zn   0.73696   0.11712   0.37208   1.000
    Zn7     Zn   0.23376   0.38005   0.62762   1.000
    H8      H    0.26332   0.07620   0.59869   1.000
    H9      H    0.14367   0.03226   0.19230   1.000
    H10     H    0.21083   0.83695   0.45893   1.000
    H11     H    0.31361   0.83528   0.46289   1.000
    H12     H    0.26558   0.86849   0.37980   1.000
    H13     H    0.26450   0.20088   0.52253   1.000
    H14     H    0.20732   0.18777   0.44045   1.000
    H15     H    0.30987   0.18784   0.43380   1.000
    H16     H    0.09421   0.91207   0.30592   1.000
    H17     H    0.05288   0.00000   0.33364   1.000
    H18     H    0.11241   0.95016   0.39682   1.000
    H19     H    0.40103   0.09905   0.24985   1.000
    H20     H    0.39911   0.07721   0.34782   1.000
    H21     H    0.36114   0.16830   0.31340   1.000
    H22     H    0.08838   0.72582   0.53783   1.000
    H23     H    0.98442   0.67335   0.45370   1.000
    H24     H    0.88305   0.90576   0.43790   1.000
    H25     H    0.98013   0.95486   0.52955   1.000
    H26     H    0.76849   0.42704   0.39982   1.000
    H27     H    0.63770   0.46892   0.80466   1.000
    H28     H    0.70854   0.66391   0.54501   1.000
    H29     H    0.81107   0.66547   0.53723   1.000
    H30     H    0.76712   0.63092   0.62141   1.000
    H31     H    0.76240   0.30084   0.47435   1.000
    H32     H    0.70870   0.31456   0.55877   1.000
    H33     H    0.81146   0.31116   0.56144   1.000
    H34     H    0.58901   0.59079   0.68826   1.000
    H35     H    0.54824   0.49860   0.66366   1.000
    H36     H    0.60765   0.54898   0.59879   1.000
    H37     H    0.89626   0.39765   0.75207   1.000
    H38     H    0.89758   0.42368   0.65494   1.000
    H39     H    0.85975   0.33181   0.68453   1.000
    H40     H    0.58884   0.77580   0.46695   1.000
    H41     H    0.48320   0.82717   0.55132   1.000
    H42     H    0.38545   0.59567   0.56073   1.000
    H43     H    0.48506   0.54762   0.46942   1.000
    H44     H    0.76279   0.57672   0.90100   1.000
    H45     H    0.64361   0.53330   0.30738   1.000
    H46     H    0.71057   0.33746   0.04151   1.000
    H47     H    0.81333   0.33584   0.03737   1.000
    H48     H    0.76545   0.36910   0.12036   1.000
    H49     H    0.76506   0.70143   0.97692   1.000
    H50     H    0.70719   0.68843   0.05861   1.000
    H51     H    0.80969   0.68827   0.06604   1.000
    H52     H    0.59475   0.41231   0.19410   1.000
    H53     H    0.55297   0.50443   0.16655   1.000
    H54     H    0.61254   0.45075   0.10318   1.000
    H55     H    0.90109   0.59988   0.24974   1.000
    H56     H    0.89907   0.57820   0.15179   1.000
    H57     H    0.86108   0.66921   0.18618   1.000
    H58     H    0.58826   0.22565   0.96207   1.000
    H59     H    0.48427   0.17314   0.04628   1.000
    H60     H    0.38341   0.40572   0.06236   1.000
    H61     H    0.48048   0.45485   0.97061   1.000
    H62     H    0.26941   0.92705   0.10028   1.000
    H63     H    0.13780   0.96888   0.69523   1.000
    H64     H    0.20833   0.16354   0.95428   1.000
    H65     H    0.31084   0.16542   0.96220   1.000
    H66     H    0.26716   0.13070   0.87810   1.000
    H67     H    0.26254   0.80070   0.02621   1.000
    H68     H    0.20894   0.81433   0.94168   1.000
    H69     H    0.31171   0.81086   0.93912   1.000
    H70     H    0.08911   0.09066   0.81095   1.000
    H71     H    0.04833   0.99863   0.83628   1.000
    H72     H    0.10778   0.04936   0.90073   1.000
    H73     H    0.39612   0.89678   0.74800   1.000
    H74     H    0.39750   0.92314   0.84519   1.000
    H75     H    0.35942   0.83129   0.81608   1.000
    H76     H    0.08974   0.27485   0.03339   1.000
    H77     H    0.98441   0.32761   0.94926   1.000
    H78     H    0.88498   0.09691   0.93894   1.000
    H79     H    0.98428   0.04750   0.00000   1.000
    H80     H    0.23719   0.42331   0.09903   1.000
    H81     H    0.35637   0.46661   0.69269   1.000
    H82     H    0.28940   0.66255   0.95800   1.000
    H83     H    0.18664   0.66418   0.96261   1.000
    H84     H    0.23454   0.63090   0.87964   1.000
    H85     H    0.23490   0.29859   0.02310   1.000
    H86     H    0.29278   0.31160   0.94142   1.000
    H87     H    0.19029   0.31175   0.93390   1.000
    H88     H    0.40519   0.58769   0.80592   1.000
    H89     H    0.44698   0.49557   0.83345   1.000
    H90     H    0.38743   0.54923   0.89684   1.000
    H91     H    0.09885   0.40016   0.75029   1.000
    H92     H    0.10086   0.42182   0.84824   1.000
    H93     H    0.13884   0.33081   0.81382   1.000
    H94     H    0.41175   0.77436   0.03791   1.000
    H95     H    0.51575   0.82687   0.95371   1.000
    H96     H    0.61658   0.59428   0.93760   1.000
    H97     H    0.51951   0.54515   0.00000   1.000
    H98     H    0.73058   0.07295   0.89967   1.000
    H99     H    0.86218   0.03120   0.30474   1.000
    H100    H    0.79169   0.83649   0.04571   1.000
    H101    H    0.68918   0.83459   0.03770   1.000
    H102    H    0.73285   0.86933   0.12188   1.000
    H103    H    0.73746   0.19931   0.97374   1.000
    H104    H    0.79109   0.18568   0.05825   1.000
    H105    H    0.68832   0.18915   0.06085   1.000
    H106    H    0.91092   0.90941   0.18900   1.000
    H107    H    0.95169   0.00000   0.16371   1.000
    H108    H    0.89225   0.95071   0.09925   1.000
    H109    H    0.60386   0.10323   0.25173   1.000
    H110    H    0.60249   0.07680   0.15474   1.000
    H111    H    0.64052   0.16868   0.18380   1.000
    H112    H    0.91027   0.72517   0.96659   1.000
    H113    H    0.01560   0.67242   0.05073   1.000
    H114    H    0.11503   0.90312   0.06102   1.000
    H115    H    0.01574   0.95252   0.96995   1.000
    H116    H    0.73669   0.92370   0.40133   1.000
    H117    H    0.85632   0.96777   0.80769   1.000
    H118    H    0.78912   0.16305   0.54092   1.000
    H119    H    0.68634   0.16464   0.53713   1.000
    H120    H    0.73453   0.13150   0.62006   1.000
    H121    H    0.73534   0.79906   0.47753   1.000
    H122    H    0.79258   0.81216   0.55958   1.000
    H123    H    0.69004   0.81217   0.56620   1.000
    H124    H    0.90574   0.08796   0.69405   1.000
    H125    H    0.94710   0.99576   0.66636   1.000
    H126    H    0.88756   0.04984   0.60316   1.000
    H127    H    0.59893   0.90106   0.75016   1.000
    H128    H    0.60089   0.92275   0.65210   1.000
    H129    H    0.63883   0.83170   0.68672   1.000
    H130    H    0.91149   0.27426   0.46213   1.000
    H131    H    0.01546   0.32674   0.54624   1.000
    H132    H    0.11683   0.09434   0.56207   1.000
    H133    H    0.01973   0.04523   0.47044   1.000
    H134    H    0.23174   0.57307   0.60016   1.000
    H135    H    0.36229   0.53107   0.19533   1.000
    H136    H    0.29149   0.33610   0.45507   1.000
    H137    H    0.18896   0.33458   0.46280   1.000
    H138    H    0.23296   0.36909   0.37864   1.000
    H139    H    0.23731   0.69923   0.52558   1.000
    H140    H    0.29137   0.68553   0.44138   1.000
    H141    H    0.18862   0.68882   0.43832   1.000
    H142    H    0.41092   0.40916   0.31170   1.000
    H143    H    0.45174   0.50133   0.33631   1.000
    H144    H    0.39232   0.45096   0.40118   1.000
    H145    H    0.10372   0.60232   0.24790   1.000
    H146    H    0.10242   0.57638   0.34500   1.000
    H147    H    0.14025   0.66822   0.31540   1.000
    H148    H    0.41072   0.22400   0.53327   1.000
    H149    H    0.51616   0.17239   0.44876   1.000
    H150    H    0.61448   0.40364   0.43938   1.000
    H151    H    0.51502   0.45193   0.53077   1.000
    C152    C    0.26308   0.86833   0.44127   1.000
    C153    C    0.26263   0.95086   0.46980   1.000
    C154    C    0.25769   0.02154   0.42786   1.000
    C155    C    0.26262   0.08272   0.48012   1.000
    C156    C    0.26111   0.16951   0.46907   1.000
    C157    C    0.10503   0.96631   0.33777   1.000
    C158    C    0.17540   0.00689   0.30900   1.000
    C159    C    0.24296   0.03040   0.34753   1.000
    C160    C    0.28931   0.06782   0.29300   1.000
    C161    C    0.36681   0.10477   0.30146   1.000
    C162    C    0.10186   0.87660   0.58920   1.000
    C163    C    0.04078   0.84386   0.53850   1.000
    C164    C    0.04253   0.76443   0.51628   1.000
    C165    C    0.98532   0.73554   0.46899   1.000
    C166    C    0.92694   0.86593   0.46094   1.000
    C167    C    0.98188   0.89383   0.51102   1.000
    C168    C    0.86142   0.75485   0.39374   1.000
    C169    C    0.92701   0.78607   0.44056   1.000
    C170    C    0.76230   0.63217   0.56015   1.000
    C171    C    0.76282   0.55016   0.53030   1.000
    C172    C    0.75606   0.47907   0.57116   1.000
    C173    C    0.76260   0.41844   0.51833   1.000
    C174    C    0.76129   0.33152   0.52830   1.000
    C175    C    0.60021   0.53513   0.65830   1.000
    C176    C    0.67078   0.49391   0.68762   1.000
    C177    C    0.73947   0.46986   0.65106   1.000
    C178    C    0.78571   0.43231   0.70638   1.000
    C179    C    0.86407   0.39468   0.69914   1.000
    C180    C    0.60562   0.62605   0.41220   1.000
    C181    C    0.54359   0.65821   0.46333   1.000
    C182    C    0.54356   0.73708   0.48727   1.000
    C183    C    0.48535   0.76537   0.53466   1.000
    C184    C    0.42910   0.63551   0.53918   1.000
    C185    C    0.48527   0.60822   0.48922   1.000
    C186    C    0.36097   0.74584   0.60840   1.000
    C187    C    0.42756   0.71487   0.56138   1.000
    C188    C    0.76283   0.36888   0.05897   1.000
    C189    C    0.76234   0.45140   0.03013   1.000
    C190    C    0.75772   0.52212   0.07200   1.000
    C191    C    0.76258   0.58326   0.01957   1.000
    C192    C    0.76118   0.67006   0.03043   1.000
    C193    C    0.60525   0.46669   0.16226   1.000
    C194    C    0.67554   0.50748   0.19009   1.000
    C195    C    0.74307   0.53104   0.15231   1.000
    C196    C    0.78934   0.56864   0.20600   1.000
    C197    C    0.86680   0.60566   0.19816   1.000
    C198    C    0.60195   0.37659   0.91074   1.000
    C199    C    0.54091   0.34378   0.96152   1.000
    C200    C    0.54252   0.26428   0.98370   1.000
    C201    C    0.48529   0.23537   0.03105   1.000
    C202    C    0.42720   0.36586   0.03926   1.000
    C203    C    0.48214   0.39378   0.98913   1.000
    C204    C    0.36150   0.25470   0.10637   1.000
    C205    C    0.42713   0.28594   0.05957   1.000
    C206    C    0.26222   0.13195   0.93935   1.000
    C207    C    0.26293   0.04996   0.96942   1.000
    C208    C    0.25609   0.97883   0.92870   1.000
    C209    C    0.26283   0.91825   0.98178   1.000
    C210    C    0.26151   0.83132   0.97212   1.000
    C211    C    0.10031   0.03518   0.84132   1.000
    C212    C    0.17084   0.99380   0.81220   1.000
    C213    C    0.23944   0.96958   0.84891   1.000
    C214    C    0.28565   0.93191   0.79370   1.000
    C215    C    0.36391   0.89410   0.80113   1.000
    C216    C    0.10559   0.12492   0.08739   1.000
    C217    C    0.04364   0.15761   0.03651   1.000
    C218    C    0.04418   0.23663   0.01291   1.000
    C219    C    0.98616   0.26568   0.96565   1.000
    C220    C    0.92894   0.13628   0.96061   1.000
    C221    C    0.98496   0.10822   0.00000   1.000
    C222    C    0.86163   0.24785   0.89217   1.000
    C223    C    0.92800   0.21579   0.93879   1.000
    C224    C    0.23714   0.63113   0.94103   1.000
    C225    C    0.23762   0.54861   0.96988   1.000
    C226    C    0.24223   0.47789   0.92803   1.000
    C227    C    0.23738   0.41675   0.98040   1.000
    C228    C    0.23879   0.32996   0.96959   1.000
    C229    C    0.39470   0.53331   0.83776   1.000
    C230    C    0.32440   0.49252   0.80994   1.000
    C231    C    0.25687   0.46897   0.84772   1.000
    C232    C    0.21060   0.43138   0.79330   1.000
    C233    C    0.13313   0.39436   0.80186   1.000
    C234    C    0.39805   0.62343   0.08924   1.000
    C235    C    0.45910   0.65623   0.03845   1.000
    C236    C    0.45749   0.73573   0.01628   1.000
    C237    C    0.51472   0.76464   0.96890   1.000
    C238    C    0.57279   0.63414   0.96070   1.000
    C239    C    0.51786   0.60622   0.00000   1.000
    C240    C    0.63851   0.74531   0.89361   1.000
    C241    C    0.57288   0.71406   0.94040   1.000
    C242    C    0.73779   0.86807   0.06063   1.000
    C243    C    0.73708   0.95006   0.03055   1.000
    C244    C    0.74393   0.02119   0.07118   1.000
    C245    C    0.73718   0.08176   0.01818   1.000
    C246    C    0.73850   0.16870   0.02782   1.000
    C247    C    0.89971   0.96489   0.15865   1.000
    C248    C    0.82917   0.00626   0.18774   1.000
    C249    C    0.76057   0.03046   0.15105   1.000
    C250    C    0.71434   0.06811   0.20624   1.000
    C251    C    0.63606   0.10588   0.19879   1.000
    C252    C    0.89442   0.87509   0.91258   1.000
    C253    C    0.95638   0.84241   0.96346   1.000
    C254    C    0.95584   0.76339   0.98707   1.000
    C255    C    0.01385   0.73434   0.03433   1.000
    C256    C    0.07108   0.86375   0.03935   1.000
    C257    C    0.01505   0.89180   0.98950   1.000
    C258    C    0.13839   0.75218   0.10781   1.000
    C259    C    0.07201   0.78424   0.06119   1.000
    C260    C    0.73693   0.13164   0.55867   1.000
    C261    C    0.73739   0.04910   0.53009   1.000
    C262    C    0.74229   0.97844   0.57214   1.000
    C263    C    0.73733   0.91724   0.51990   1.000
    C264    C    0.73879   0.83045   0.53097   1.000
    C265    C    0.89494   0.03372   0.66220   1.000
    C266    C    0.82458   0.99313   0.69020   1.000
    C267    C    0.75702   0.96960   0.65247   1.000
    C268    C    0.71067   0.93220   0.70690   1.000
    C269    C    0.63317   0.89525   0.69857   1.000
    C270    C    0.89802   0.12345   0.41074   1.000
    C271    C    0.95908   0.15622   0.46140   1.000
    C272    C    0.95734   0.23566   0.48369   1.000
    C273    C    0.01456   0.26456   0.53096   1.000
    C274    C    0.07293   0.13416   0.53903   1.000
    C275    C    0.01798   0.10626   0.48896   1.000
    C276    C    0.13847   0.24524   0.60621   1.000
    C277    C    0.07287   0.21402   0.55940   1.000
    C278    C    0.23775   0.36786   0.43990   1.000
    C279    C    0.23724   0.44988   0.46973   1.000
    C280    C    0.24394   0.52097   0.42883   1.000
    C281    C    0.23741   0.58161   0.48165   1.000
    C282    C    0.23868   0.66852   0.47165   1.000
    C283    C    0.39975   0.46482   0.34167   1.000
    C284    C    0.32920   0.50608   0.31236   1.000
    C285    C    0.26051   0.53015   0.34890   1.000
    C286    C    0.21428   0.56771   0.29360   1.000
    C287    C    0.13593   0.60534   0.30083   1.000
    C288    C    0.39430   0.37374   0.58792   1.000
    C289    C    0.45626   0.34146   0.53686   1.000
    C290    C    0.45607   0.26261   0.51291   1.000
    C291    C    0.51416   0.23419   0.46545   1.000
    C292    C    0.57072   0.36393   0.46090   1.000
    C293    C    0.51465   0.39134   0.51096   1.000
    C294    C    0.63855   0.25353   0.39169   1.000
    C295    C    0.57203   0.28459   0.43871   1.000
    N296    N    0.26874   0.96743   0.54360   1.000
    N297    N    0.26948   0.04799   0.54836   1.000
    N298    N    0.25210   0.06677   0.22649   1.000
    N299    N    0.18350   0.02923   0.23760   1.000
    N300    N    0.77157   0.53450   0.45661   1.000
    N301    N    0.77190   0.45401   0.45084   1.000
    N302    N    0.74738   0.43384   0.77228   1.000
    N303    N    0.67813   0.47170   0.75996   1.000
    N304    N    0.76819   0.46794   0.95631   1.000
    N305    N    0.76912   0.54851   0.95137   1.000
    N306    N    0.75208   0.56764   0.27321   1.000
    N307    N    0.68357   0.52993   0.26215   1.000
    N308    N    0.27194   0.03438   0.04315   1.000
    N309    N    0.27232   0.95392   0.04914   1.000
    N310    N    0.24740   0.93356   0.72775   1.000
    N311    N    0.17822   0.97159   0.73994   1.000
    N312    N    0.23178   0.53208   0.04370   1.000
    N313    N    0.23085   0.45152   0.04866   1.000
    N314    N    0.24786   0.43237   0.72682   1.000
    N315    N    0.31636   0.47008   0.73788   1.000
    N316    N    0.72806   0.96562   0.95682   1.000
    N317    N    0.72768   0.04608   0.95082   1.000
    N318    N    0.75258   0.06649   0.27220   1.000
    N319    N    0.82176   0.02848   0.26003   1.000
    N320    N    0.73129   0.03250   0.45636   1.000
    N321    N    0.73051   0.95194   0.45164   1.000
    N322    N    0.74788   0.93326   0.77352   1.000
    N323    N    0.81648   0.97081   0.76234   1.000
    N324    N    0.22854   0.46557   0.54342   1.000
    N325    N    0.22816   0.54607   0.54916   1.000
    N326    N    0.25261   0.56618   0.22770   1.000
    N327    N    0.32185   0.52829   0.24002   1.000
    O328    O    0.16380   0.83340   0.59681   1.000
    O329    O    0.09016   0.94327   0.61912   1.000
    O330    O    0.86027   0.67763   0.39054   1.000
    O331    O    0.81247   0.80034   0.36500   1.000
    O332    O    0.66581   0.66985   0.40361   1.000
    O333    O    0.59630   0.55899   0.38300   1.000
    O334    O    0.35776   0.82308   0.61175   1.000
    O335    O    0.31347   0.70020   0.63710   1.000
    O336    O    0.66392   0.33344   0.90318   1.000
    O337    O    0.59017   0.44328   0.88078   1.000
    O338    O    0.36021   0.17747   0.10947   1.000
    O339    O    0.31263   0.30016   0.13517   1.000
    O340    O    0.16554   0.16896   0.09654   1.000
    O341    O    0.09650   0.05748   0.11611   1.000
    O342    O    0.85880   0.32515   0.88995   1.000
    O343    O    0.81374   0.20314   0.86284   1.000
    O344    O    0.33609   0.66658   0.09679   1.000
    O345    O    0.40983   0.55674   0.11920   1.000
    O346    O    0.63979   0.82254   0.89050   1.000
    O347    O    0.68739   0.69985   0.86482   1.000
    O348    O    0.83447   0.83105   0.90343   1.000
    O349    O    0.90351   0.94254   0.88386   1.000
    O350    O    0.14120   0.67488   0.11005   1.000
    O351    O    0.18628   0.79689   0.13712   1.000
    O352    O    0.83604   0.16661   0.40316   1.000
    O353    O    0.90980   0.05681   0.38083   1.000
    O354    O    0.13967   0.32245   0.60941   1.000
    O355    O    0.18739   0.19972   0.63497   1.000
    O356    O    0.33401   0.33008   0.59600   1.000
    O357    O    0.40378   0.44073   0.61730   1.000
    O358    O    0.64148   0.17629   0.38804   1.000
    O359    O    0.68632   0.29909   0.36329   1.000
loop_
    _geom_bond_atom_site_label_1
    _geom_bond_atom_site_label_2
    _geom_bond_distance
    _geom_bond_site_symmetry_2
    _ccdc_geom_bond_type
    H79    C221      1.02913      .   S
    H97    C239      1.03493      .   S
    C239   C235      1.48056      .   S
    C239   C238      1.27462  1_554   S
    C221   C217      1.47429  1_655   S
    C221   C220      1.28029  1_554   S
    C218   H76       1.08850      .   S
    C218   C217      1.40361      .   S
    C218   C219      1.39245  1_454   S
    C236   H94       1.08862      .   S
    C236   C235      1.40364      .   S
    C236   C237      1.39329  1_554   S
    C245   C246      1.48388      .   S
    C245   C244      1.39892      .   S
    C245   N317      1.35759  1_554   S
    C191   C192      1.48362      .   S
    C191   C190      1.39895      .   S
    C191   N305      1.35716  1_554   S
    H85    C228      1.09528  1_554   S
    H67    C210      1.09569  1_554   S
    C246   H104      1.09872      .   S
    C246   H105      1.09902      .   S
    C246   H103      1.09553  1_554   S
    C189   C188      1.48951      .   S
    C189   C190      1.41442      .   S
    C189   N304      1.35114  1_554   S
    C192   H50       1.09903      .   S
    C192   H51       1.09829      .   S
    C192   H49       1.09522  1_554   S
    C243   C242      1.48881      .   S
    C243   C244      1.41385  1_565   S
    C243   N316      1.35072  1_554   S
    C201   H59       1.08918      .   S
    C201   C205      1.40544      .   S
    C201   C200      1.39297  1_554   S
    C255   H113      1.08908      .   S
    C255   C259      1.40537      .   S
    C255   C254      1.39243  1_454   S
    C217   C216      1.50140      .   S
    H47    C188      1.09843      .   S
    H101   C242      1.09796      .   S
    C235   C234      1.50127      .   S
    C202   C205      1.40163      .   S
    C202   H60       1.08726      .   S
    C202   C203      1.39041  1_554   S
    C256   H114      1.08804      .   S
    C256   C259      1.40212      .   S
    C256   C257      1.39152  1_554   S
    H46    C188      1.09826      .   S
    N308   N309      1.36750  1_545   S
    N308   Zn3       2.09002      .   S
    N308   C207      1.35073  1_554   S
    N312   N313      1.36833      .   S
    N312   Zn4       2.08195      .   S
    N312   C225      1.35110  1_554   S
    H100   C242      1.09845      .   S
    N313   H80       1.02306      .   S
    N313   C227      1.35815  1_554   S
    N309   H62       1.02139      .   S
    N309   C209      1.35751  1_554   S
    C188   H48       1.09694      .   S
    C205   C204      1.50803      .   S
    C242   H102      1.09702      .   S
    C259   C258      1.50920      .   S
    C244   C249      1.46356      .   S
    C190   C195      1.46347      .   S
    C216   O340      1.29368      .   S
    C216   O341      1.26390      .   S
    C234   O344      1.29285      .   S
    C234   O345      1.26354      .   S
    O340   Zn3       1.99126      .   S
    O344   Zn4       1.99280      .   S
    H108   C247      1.09560      .   S
    H54    C193      1.09585      .   S
    C204   O338      1.31038      .   S
    C204   O339      1.24491      .   S
    C258   O350      1.31073      .   S
    C258   O351      1.24422      .   S
    O338   Zn3       1.93148      .   S
    O350   Zn4       1.93552      .   S
    Zn3    N298      1.99888      .   S
    Zn4    N326      1.99582      .   S
    C249   C248      1.40735      .   S
    C249   C250      1.41419      .   S
    H56    C197      1.09766      .   S
    C195   C194      1.40777      .   S
    C195   C196      1.40584      .   S
    H110   C251      1.09785      .   S
    C247   H107      1.08634  1_565   S
    C247   C248      1.48867  1_565   S
    C247   H106      1.09932      .   S
    C193   H53       1.10032      .   S
    C193   C194      1.48901      .   S
    C193   H52       1.09940      .   S
    H111   C251      1.10075      .   S
    H57    C197      1.10074      .   S
    C248   N319      1.35034      .   S
    C194   N307      1.34966      .   S
    H9     N299      1.06154      .   S
    H135   N327      1.06090      .   S
    C197   C196      1.48994      .   S
    C197   H55       1.09765      .   S
    C251   C250      1.49085      .   S
    C251   H109      1.09733      .   S
    C196   N306      1.36115      .   S
    C250   N318      1.34951      .   S
    N298   N299      1.36500      .   S
    N298   C160      1.34977      .   S
    N326   N327      1.36475      .   S
    N326   C286      1.34941      .   S
    N299   C158      1.33719      .   S
    N327   C284      1.35025      .   S
    H145   C287      1.09757      .   S
    H19    C161      1.09760      .   S
    N319   N318      1.36477      .   S
    N319   H99       1.06089      .   S
    N307   N306      1.36506      .   S
    N307   H45       1.06243      .   S
    N318   Zn6       1.99626      .   S
    N306   Zn1       1.99808      .   S
    C160   C161      1.49114      .   S
    C160   C159      1.41464      .   S
    C286   C287      1.49084      .   S
    C286   C285      1.41380      .   S
    C287   H147      1.10076      .   S
    C287   H146      1.09700      .   S
    C161   H21       1.10075      .   S
    C161   H20       1.09764      .   S
    H16    C157      1.09944      .   S
    C158   C157      1.49364  1_545   S
    C158   C159      1.41476      .   S
    H142   C283      1.09953      .   S
    C284   C283      1.48881      .   S
    C284   C285      1.40723      .   S
    H17    C157      1.06056  1_545   S
    H143   C283      1.10023      .   S
    C157   H18       1.09580      .   S
    C283   H144      1.09572      .   S
    C159   C154      1.46363      .   S
    C285   C280      1.46385      .   S
    O359   C294      1.24432      .   S
    O331   C168      1.24494      .   S
    Zn6    O358      1.93613      .   S
    Zn6    O352      1.99244      .   S
    Zn6    N320      2.08053      .   S
    Zn1    O330      1.93262      .   S
    Zn1    O332      1.99380      .   S
    Zn1    N300      2.08775      .   S
    H138   C278      1.09693      .   S
    H12    C152      1.09827      .   S
    O353   C270      1.26355      .   S
    O333   C180      1.26318      .   S
    O358   C294      1.31079      .   S
    O330   C168      1.31025      .   S
    C294   C295      1.50996      .   S
    C168   C169      1.50824      .   S
    H26    N301      1.02160      .   S
    H116   N321      1.02304      .   S
    O352   C270      1.29295      .   S
    O332   C180      1.29312      .   S
    C270   C271      1.50057      .   S
    C180   C181      1.50274      .   S
    C154   C153      1.41325  1_545   S
    C154   C155      1.39904      .   S
    C280   C279      1.41406      .   S
    C280   C281      1.39893      .   S
    H15    C156      1.09831      .   S
    H24    C166      1.08718      .   S
    H141   C282      1.09895      .   S
    C295   C292      1.40197      .   S
    C295   C291      1.40550      .   S
    H150   C292      1.08773      .   S
    C278   H136      1.09838      .   S
    C278   H137      1.09792      .   S
    C278   C279      1.48886      .   S
    H14    C156      1.09889      .   S
    C169   C166      1.40168      .   S
    C169   C165      1.40542      .   S
    C152   H10       1.09832      .   S
    C152   H11       1.09846      .   S
    C152   C153      1.48894      .   S
    H140   C282      1.09873      .   S
    H149   C291      1.08922      .   S
    N301   N300      1.36798      .   S
    N301   C173      1.35719      .   S
    N321   N320      1.36814  1_565   S
    N321   C263      1.35688      .   S
    H23    C165      1.08917      .   S
    N320   C261      1.35073      .   S
    N300   C171      1.35041      .   S
    C292   C293      1.39159      .   S
    C166   C167      1.39045      .   S
    C271   C272      1.40405      .   S
    C271   C275      1.40153  1_655   S
    H130   C272      1.08867      .   S
    C181   C182      1.40360      .   S
    C181   C185      1.40180      .   S
    C291   C290      1.39269      .   S
    H40    C182      1.08872      .   S
    C165   C164      1.39268  1_655   S
    C156   C155      1.48365      .   S
    C156   H13       1.09496      .   S
    H43    C185      1.08647      .   S
    C279   N324      1.35041      .   S
    C153   N296      1.35188      .   S
    H133   C275      1.08612      .   S
    C282   C281      1.48388      .   S
    C282   H139      1.09505      .   S
    H31    C174      1.09509      .   S
    H121   C264      1.09488      .   S
    C155   N297      1.35677      .   S
    C281   N325      1.35719      .   S
    C272   C273      1.39261  1_655   S
    C182   C183      1.39277      .   S
    C275   C274      1.39045      .   S
    C185   C184      1.39109      .   S
    C293   H151      1.08643      .   S
    C293   C289      1.40168      .   S
    C167   H25       1.08614      .   S
    C167   C163      1.40103  1_655   S
    C290   H148      1.08870      .   S
    C290   C289      1.40358      .   S
    C164   H22       1.08863      .   S
    C164   C163      1.40363      .   S
    C173   C174      1.48385      .   S
    C173   C172      1.39887      .   S
    C263   C264      1.48368      .   S
    C263   C262      1.39903      .   S
    C174   H32       1.09877      .   S
    C174   H33       1.09901      .   S
    C261   C260      1.48945      .   S
    C261   C262      1.41402  1_545   S
    C171   C170      1.48884      .   S
    C171   C172      1.41394      .   S
    C273   H131      1.08920      .   S
    C273   C277      1.40548      .   S
    C264   H122      1.09898      .   S
    C264   H123      1.09757      .   S
    C183   H41       1.08916      .   S
    C183   C187      1.40552      .   S
    C289   C288      1.50158      .   S
    H119   C260      1.09850      .   S
    H29    C170      1.09794      .   S
    C163   C162      1.50106      .   S
    C274   C277      1.40170      .   S
    C274   H132      1.08719      .   S
    C184   H42       1.08802      .   S
    C184   C187      1.40227      .   S
    H118   C260      1.09825      .   S
    N324   N325      1.36802      .   S
    N324   Zn7       2.08786      .   S
    N296   N297      1.36815  1_565   S
    N296   Zn0       2.06857      .   S
    H28    C170      1.09840      .   S
    N297   H8        1.02305      .   S
    N325   H134      1.02174      .   S
    C260   H120      1.09678      .   S
    C277   C276      1.50819      .   S
    C170   H30       1.09697      .   S
    C187   C186      1.51036      .   S
    C172   C177      1.46344      .   S
    C262   C267      1.46357      .   S
    C288   O356      1.29219      .   S
    C288   O357      1.26382      .   S
    C162   O328      1.29293      .   S
    C162   O329      1.26376      .   S
    O356   Zn7       1.99523      .   S
    O328   Zn0       1.98786      .   S
    H36    C175      1.09571      .   S
    H126   C265      1.09554      .   S
    C276   O354      1.31027      .   S
    C276   O355      1.24499      .   S
    C186   O334      1.31072      .   S
    C186   O335      1.24419      .   S
    O354   Zn7       1.93251      .   S
    O334   Zn0       1.93133      .   S
    Zn0    N310      2.01012      .   S
    Zn7    N314      1.99783      .   S
    C177   C176      1.40740      .   S
    C177   C178      1.41406      .   S
    H128   C269      1.09848      .   S
    C267   C266      1.40793      .   S
    C267   C268      1.41326      .   S
    H38    C179      1.09775      .   S
    C175   H35       1.10023      .   S
    C175   C176      1.48877      .   S
    C175   H34       1.09954      .   S
    C265   H125      1.10037  1_545   S
    C265   C266      1.48894  1_545   S
    C265   H124      1.09957      .   S
    H39    C179      1.10070      .   S
    H129   C269      1.10076      .   S
    C176   N303      1.35023      .   S
    C266   N323      1.34969      .   S
    H81    N315      1.06248      .   S
    H63    N311      1.06100      .   S
    C269   C268      1.49094      .   S
    C269   H127      1.09759      .   S
    C179   C178      1.49085      .   S
    C179   H37       1.09742      .   S
    C178   N302      1.34941      .   S
    C268   N322      1.35154      .   S
    N314   N315      1.36504      .   S
    N314   C232      1.34969      .   S
    N310   N311      1.36479      .   S
    N310   C214      1.34947      .   S
    N315   C230      1.34963      .   S
    N311   C212      1.34975      .   S
    H73    C215      1.10033      .   S
    H91    C233      1.09752      .   S
    N303   N302      1.36475      .   S
    N303   H27       1.06100      .   S
    N323   N322      1.36512      .   S
    N323   H117      1.06234      .   S
    N302   Zn2       1.99576      .   S
    N322   Zn5       1.99870      .   S
    C232   C233      1.49119      .   S
    C232   C231      1.41476      .   S
    C214   C215      1.49085      .   S
    C214   C213      1.41430      .   S
    C215   H75       1.10074      .   S
    C215   H74       1.09779      .   S
    C233   H93       1.10074      .   S
    C233   H92       1.09769      .   S
    H88    C229      1.09941      .   S
    C230   C229      1.48901      .   S
    C230   C231      1.40778      .   S
    H70    C211      1.09946      .   S
    C212   C211      1.48880  1_565   S
    C212   C213      1.40764      .   S
    H89    C229      1.10031      .   S
    H71    C211      1.10021  1_565   S
    C229   H90       1.09576      .   S
    C211   H72       1.09580      .   S
    C231   C226      1.46345      .   S
    C213   C208      1.46218      .   S
    O343   C222      1.24428      .   S
    O347   C240      1.24494      .   S
    Zn2    O342      1.93550      .   S
    Zn2    O336      1.99282      .   S
    Zn2    N304      2.08227      .   S
    Zn5    O346      1.93150      .   S
    Zn5    O348      1.99128      .   S
    Zn5    N316      2.08968      .   S
    H66    C206      1.09700      .   S
    H84    C224      1.09693      .   S
    O337   C198      1.26359      .   S
    O349   C252      1.26391      .   S
    O342   C222      1.31074      .   S
    O346   C240      1.31036      .   S
    C222   C223      1.50925      .   S
    C240   C241      1.50799      .   S
    H98    N317      1.02145      .   S
    H44    N305      1.02311      .   S
    O336   C198      1.29285      .   S
    O348   C252      1.29368      .   S
    C198   C199      1.50121      .   S
    C252   C253      1.50141      .   S
    C226   C225      1.41426      .   S
    C226   C227      1.39817      .   S
    C208   C207      1.41459  1_565   S
    C208   C209      1.39997      .   S
    H87    C228      1.09901      .   S
    H96    C238      1.08720      .   S
    C223   C220      1.40209      .   S
    C223   C219      1.40530      .   S
    H78    C220      1.08800      .   S
    H69    C210      1.09888      .   S
    C206   H64       1.09844      .   S
    C206   H65       1.09744      .   S
    C206   C207      1.48883      .   S
    C241   C238      1.40163      .   S
    C241   C237      1.40525      .   S
    C224   H82       1.09578      .   S
    C224   H83       1.09841      .   S
    C224   C225      1.48949      .   S
    H86    C228      1.09898      .   S
    H68    C210      1.09866      .   S
    H77    C219      1.08908      .   S
    N317   N316      1.36750  1_545   S
    N305   N304      1.36830      .   S
    H95    C237      1.08902      .   S
    C199   C200      1.40364      .   S
    C199   C203      1.40127      .   S
    H58    C200      1.08868      .   S
    C253   C254      1.40361      .   S
    C253   C257      1.40163  1_655   S
    H112   C254      1.08856      .   S
    C228   C227      1.48347      .   S
    H115   C257      1.08628      .   S
    H61    C203      1.08606      .   S
    C210   C209      1.48392      .   S
