# CIF file generated by openbabel 2.4.90, see http://openbabel.sf.net
data_I
_chemical_name_common ''
_cell_length_a 17.315
_cell_length_b 19.3
_cell_length_c 22.368
_cell_angle_alpha 90
_cell_angle_beta 90.002
_cell_angle_gamma 94.969
_space_group_name_H-M_alt 'P 1'
_space_group_name_Hall 'P 1'
loop_
    _symmetry_equiv_pos_as_xyz
    x,y,z
loop_
    _atom_site_label
    _atom_site_type_symbol
    _atom_site_fract_x
    _atom_site_fract_y
    _atom_site_fract_z
    _atom_site_occupancy
    Cd0     Cd   0.84496   0.01207   0.44376   1.000
    Cd1     Cd   0.15505   0.48790   0.94376   1.000
    Cd2     Cd   0.65505   0.48791   0.94376   1.000
    Cd3     Cd   0.15504   0.98789   0.55623   1.000
    Cd4     Cd   0.65504   0.98789   0.55623   1.000
    Cd5     Cd   0.34495   0.51206   0.05623   1.000
    Cd6     Cd   0.84495   0.51206   0.05623   1.000
    Cd7     Cd   0.34496   0.01207   0.44376   1.000
    C8      C    0.15405   0.08972   0.46211   1.000
    C9      C    0.65405   0.08972   0.46211   1.000
    C10     C    0.07025   0.93509   0.65503   1.000
    C11     C    0.42976   0.06488   0.34496   1.000
    C12     C    0.92976   0.06488   0.34496   1.000
    C13     C    0.34597   0.41026   0.96210   1.000
    C14     C    0.84597   0.41026   0.96210   1.000
    O15     O    0.13318   0.40840   0.85694   1.000
    O16     O    0.63319   0.40840   0.85690   1.000
    O17     O    0.04371   0.48341   0.87549   1.000
    O18     O    0.54371   0.48341   0.87549   1.000
    C19     C    0.07026   0.43511   0.84495   1.000
    C20     C    0.57026   0.43511   0.84495   1.000
    C21     C    0.34596   0.91024   0.53788   1.000
    C22     C    0.84596   0.91024   0.53788   1.000
    C23     C    0.57025   0.93509   0.65503   1.000
    C24     C    0.15403   0.58970   0.03788   1.000
    C25     C    0.65403   0.58970   0.03788   1.000
    C26     C    0.42974   0.56485   0.15504   1.000
    C27     C    0.92974   0.56486   0.15500   1.000
    O28     O    0.21435   0.05695   0.45788   1.000
    O29     O    0.71435   0.05695   0.45788   1.000
    O30     O    0.10286   0.07779   0.50259   1.000
    O31     O    0.60286   0.07779   0.50259   1.000
    O32     O    0.36683   0.09158   0.35694   1.000
    O33     O    0.86682   0.09158   0.35690   1.000
    O34     O    0.45630   0.01657   0.37550   1.000
    O35     O    0.95630   0.01657   0.37550   1.000
    O36     O    0.28566   0.44302   0.95788   1.000
    O37     O    0.78566   0.44302   0.95788   1.000
    O38     O    0.39715   0.42220   0.00259   1.000
    O39     O    0.89715   0.42220   0.00259   1.000
    O40     O    0.28565   0.94300   0.54210   1.000
    O41     O    0.78565   0.94300   0.54210   1.000
    O42     O    0.39714   0.92218   0.49740   1.000
    O43     O    0.89715   0.92218   0.49740   1.000
    O44     O    0.13318   0.90839   0.64305   1.000
    O45     O    0.63318   0.90839   0.64305   1.000
    O46     O    0.04370   0.98339   0.62440   1.000
    O47     O    0.54370   0.98339   0.62440   1.000
    O48     O    0.21434   0.55694   0.04210   1.000
    O49     O    0.71434   0.55695   0.04210   1.000
    O50     O    0.10286   0.57777   0.99739   1.000
    O51     O    0.60286   0.57777   0.99739   1.000
    O52     O    0.36682   0.59157   0.14304   1.000
    O53     O    0.86682   0.59157   0.14305   1.000
    O54     O    0.45630   0.51657   0.12449   1.000
    O55     O    0.95629   0.51656   0.12449   1.000
    Ts56    Ts   0.85897   0.04181   0.46554   1.000
    Ts57    Ts   0.82244   0.98611   0.42201   1.000
    Ts58    Ts   0.14105   0.45817   0.96555   1.000
    Ts59    Ts   0.17757   0.51386   0.92204   1.000
    Ts60    Ts   0.64105   0.45817   0.96555   1.000
    Ts61    Ts   0.67756   0.51386   0.92204   1.000
    Ts62    Ts   0.17756   0.01385   0.57795   1.000
    Ts63    Ts   0.14104   0.95815   0.53445   1.000
    Ts64    Ts   0.67756   0.01385   0.57795   1.000
    Ts65    Ts   0.64104   0.95815   0.53444   1.000
    Ts66    Ts   0.32244   0.48611   0.07795   1.000
    Ts67    Ts   0.35896   0.54180   0.03444   1.000
    Ts68    Ts   0.82244   0.48611   0.07795   1.000
    Ts69    Ts   0.85896   0.54180   0.03444   1.000
    Ts70    Ts   0.35896   0.04181   0.46554   1.000
    Ts71    Ts   0.32244   0.98611   0.42204   1.000
    Og72    Og   0.14977   0.10839   0.44710   1.000
    Og73    Og   0.64977   0.10840   0.44710   1.000
    Og74    Og   0.05448   0.92565   0.67262   1.000
    Og75    Og   0.44552   0.07432   0.32737   1.000
    Og76    Og   0.94553   0.07432   0.32737   1.000
    Og77    Og   0.35026   0.39159   0.94709   1.000
    Og78    Og   0.85025   0.39159   0.94709   1.000
    Og79    Og   0.05449   0.42567   0.82736   1.000
    Og80    Og   0.55449   0.42567   0.82736   1.000
    Og81    Og   0.35024   0.89156   0.55289   1.000
    Og82    Og   0.85024   0.89157   0.55289   1.000
    Og83    Og   0.55448   0.92565   0.67262   1.000
    Og84    Og   0.14975   0.60837   0.05289   1.000
    Og85    Og   0.64975   0.60838   0.05289   1.000
    Og86    Og   0.44551   0.57429   0.17263   1.000
    Og87    Og   0.94551   0.57430   0.17260   1.000
loop_
    _geom_bond_atom_site_label_1
    _geom_bond_atom_site_label_2
    _geom_bond_distance
    _geom_bond_site_symmetry_2
    _ccdc_geom_bond_type
    O38    Cd5       2.35287      .   S
    O38    C13       1.27403  1_554   S
    O39    Cd6       2.35289      .   S
    O39    C14       1.27404  1_554   S
    C24    O48       1.27021      .   S
    C24    O50       1.27398  1_554   S
    C25    O49       1.27021      .   S
    C25    O51       1.27401  1_554   S
    O49    Cd6       2.51081      .   S
    O48    Cd5       2.51078      .   S
    Cd5    O54       2.45488      .   S
    Cd5    O52       2.48357      .   S
    Cd6    O55       2.45480      .   S
    Cd6    O53       2.48364      .   S
    O54    C26       1.27322      .   S
    O55    C27       1.27284      .   S
    O52    C26       1.27367      .   S
    O53    C27       1.27346      .   S
    C12    O33       1.27346      .   S
    C12    O35       1.27323      .   S
    C11    O32       1.27364      .   S
    C11    O34       1.27320      .   S
    O33    Cd0       2.48441      .   S
    O32    Cd7       2.48375      .   S
    O35    Cd0       2.45487      .   S
    O34    Cd7       2.45490      .   S
    Cd0    O29       2.51081      .   S
    Cd0    O43       2.35318  1_545   S
    Cd7    O28       2.51080      .   S
    Cd7    O42       2.35316  1_545   S
    O29    C9        1.27020      .   S
    O28    C8        1.27021      .   S
    C8     O30       1.27399      .   S
    C9     O31       1.27401      .   S
    O43    C22       1.27403      .   S
    O42    C21       1.27403      .   S
    O31    Cd4       2.35322  1_545   S
    O30    Cd3       2.35322  1_545   S
    C21    O40       1.27019      .   S
    C22    O41       1.27019      .   S
    O41    Cd4       2.51083      .   S
    O40    Cd3       2.51082      .   S
    Cd4    O47       2.45368      .   S
    Cd4    O45       2.48368      .   S
    Cd3    O46       2.45368      .   S
    Cd3    O44       2.48367      .   S
    O47    C23       1.27429      .   S
    O46    C10       1.27429      .   S
    O44    C10       1.27363      .   S
    O45    C23       1.27364      .   S
    C20    O16       1.27346      .   S
    C20    O18       1.27320      .   S
    C19    O15       1.27363      .   S
    C19    O17       1.27317      .   S
    O16    Cd2       2.48433      .   S
    O15    Cd1       2.48364      .   S
    O17    Cd1       2.45498      .   S
    O18    Cd2       2.45494      .   S
    Cd2    O37       2.51082      .   S
    Cd2    O51       2.35278      .   S
    Cd1    O36       2.51079      .   S
    Cd1    O50       2.35280      .   S
    O36    C13       1.27022      .   S
    O37    C14       1.27020      .   S
    Cd0    Ts56      0.77561      .   S
    Cd0    Ts57      0.77842  1_545   S
    Cd1    Ts58      0.77567      .   S
    Cd1    Ts59      0.77790      .   S
    Cd2    Ts60      0.77568      .   S
    Cd2    Ts61      0.77790      .   S
    Cd3    Ts62      0.77801  1_565   S
    Cd3    Ts63      0.77563      .   S
    Cd4    Ts64      0.77800  1_565   S
    Cd4    Ts65      0.77566      .   S
    Cd5    Ts66      0.77789      .   S
    Cd5    Ts67      0.77569      .   S
    Cd6    Ts68      0.77789      .   S
    Cd6    Ts69      0.77568      .   S
    Cd7    Ts70      0.77560      .   S
    Cd7    Ts71      0.77801  1_545   S
    C8     Og72      0.50286      .   S
    C9     Og73      0.50286      .   S
    C10    Og74      0.50387      .   S
    C11    Og75      0.50393      .   S
    C12    Og76      0.50391      .   S
    C13    Og77      0.50283      .   S
    C14    Og78      0.50283      .   S
    C19    Og79      0.50388      .   S
    C20    Og80      0.50387      .   S
    C21    Og81      0.50281      .   S
    C22    Og82      0.50281      .   S
    C23    Og83      0.50387      .   S
    C24    Og84      0.50271      .   S
    C25    Og85      0.50283      .   S
    C26    Og86      0.50389      .   S
    C27    Og87      0.50409      .   S
