# CIF file generated by openbabel 2.4.90, see http://openbabel.sf.net
data_I
_chemical_name_common ''
_cell_length_a 15.405
_cell_length_b 21.449
_cell_length_c 21.44
_cell_angle_alpha 119.836
_cell_angle_beta 90.02
_cell_angle_gamma 89.974
_space_group_name_H-M_alt 'P 1'
_space_group_name_Hall 'P 1'
loop_
    _symmetry_equiv_pos_as_xyz
    x,y,z
loop_
    _atom_site_label
    _atom_site_type_symbol
    _atom_site_fract_x
    _atom_site_fract_y
    _atom_site_fract_z
    _atom_site_occupancy
    H0      H    0.35083   0.74823   0.15519   1.000
    H1      H    0.85033   0.74820   0.15513   1.000
    H2      H    0.41726   0.76861   0.06300   1.000
    H3      H    0.91700   0.76861   0.06309   1.000
    H4      H    0.07800   0.63479   0.16005   1.000
    H5      H    0.57849   0.63453   0.15965   1.000
    H6      H    0.14550   0.65341   0.06618   1.000
    H7      H    0.64579   0.65319   0.06572   1.000
    H8      H    0.01695   0.40739   0.25243   1.000
    H9      H    0.51706   0.40751   0.25250   1.000
    H10     H    0.08363   0.29472   0.23131   1.000
    H11     H    0.58367   0.29480   0.23130   1.000
    H12     H    0.24569   0.52428   0.36438   1.000
    H13     H    0.74585   0.52429   0.36400   1.000
    H14     H    0.31327   0.41155   0.34487   1.000
    H15     H    0.81336   0.41151   0.34400   1.000
    H16     H    0.18357   0.84544   0.59322   1.000
    H17     H    0.68356   0.84538   0.59309   1.000
    H18     H    0.24998   0.93744   0.70542   1.000
    H19     H    0.74999   0.93733   0.70529   1.000
    H20     H    0.41180   0.84040   0.47548   1.000
    H21     H    0.91174   0.84034   0.47531   1.000
    H22     H    0.47915   0.93407   0.58777   1.000
    H23     H    0.97914   0.93396   0.58761   1.000
    H24     H    0.35013   0.25222   0.84517   1.000
    H25     H    0.85018   0.25222   0.84519   1.000
    H26     H    0.41692   0.23173   0.93716   1.000
    H27     H    0.91696   0.23178   0.93720   1.000
    H28     H    0.07785   0.36535   0.84005   1.000
    H29     H    0.57785   0.36530   0.84002   1.000
    H30     H    0.14548   0.34670   0.93390   1.000
    H31     H    0.64550   0.34660   0.93384   1.000
    H32     H    0.01565   0.59372   0.74718   1.000
    H33     H    0.51566   0.59371   0.74714   1.000
    H34     H    0.08268   0.70613   0.76800   1.000
    H35     H    0.58268   0.70611   0.76815   1.000
    H36     H    0.24431   0.47623   0.63565   1.000
    H37     H    0.74432   0.47623   0.63563   1.000
    H38     H    0.31237   0.58873   0.65524   1.000
    H39     H    0.81239   0.58873   0.65523   1.000
    H40     H    0.18333   0.15465   0.40748   1.000
    H41     H    0.68347   0.15453   0.40739   1.000
    H42     H    0.24957   0.06273   0.29532   1.000
    H43     H    0.74972   0.06260   0.29528   1.000
    H44     H    0.41207   0.16004   0.52498   1.000
    H45     H    0.91211   0.15990   0.52497   1.000
    H46     H    0.47936   0.06650   0.41265   1.000
    H47     H    0.97941   0.06628   0.41269   1.000
    H48     H    0.31575   0.59266   0.84523   1.000
    H49     H    0.81589   0.59257   0.84510   1.000
    H50     H    0.24983   0.70503   0.93730   1.000
    H51     H    0.74999   0.70500   0.93724   1.000
    H52     H    0.08698   0.47571   0.84053   1.000
    H53     H    0.58702   0.47571   0.84030   1.000
    H54     H    0.02022   0.58813   0.93450   1.000
    H55     H    0.52027   0.58818   0.93420   1.000
    H56     H    0.14903   0.15496   0.74800   1.000
    H57     H    0.64907   0.15500   0.74801   1.000
    H58     H    0.08265   0.06280   0.76831   1.000
    H59     H    0.58269   0.06286   0.76838   1.000
    H60     H    0.42124   0.15968   0.63457   1.000
    H61     H    0.92125   0.15965   0.63451   1.000
    H62     H    0.35401   0.06572   0.65318   1.000
    H63     H    0.85403   0.06564   0.65306   1.000
    H64     H    0.48341   0.25325   0.40718   1.000
    H65     H    0.98342   0.25321   0.40715   1.000
    H66     H    0.41748   0.23271   0.29442   1.000
    H67     H    0.91749   0.23266   0.29400   1.000
    H68     H    0.25420   0.36475   0.52360   1.000
    H69     H    0.75421   0.36473   0.52359   1.000
    H70     H    0.18731   0.34573   0.41082   1.000
    H71     H    0.68732   0.34571   0.41080   1.000
    H72     H    0.31644   0.40731   0.15435   1.000
    H73     H    0.81634   0.40735   0.15434   1.000
    H74     H    0.25014   0.29522   0.06252   1.000
    H75     H    0.75015   0.29519   0.06246   1.000
    H76     H    0.08784   0.52486   0.15966   1.000
    H77     H    0.58757   0.52470   0.15961   1.000
    H78     H    0.02046   0.41258   0.06613   1.000
    H79     H    0.52034   0.41238   0.06600   1.000
    H80     H    0.14949   0.84514   0.25212   1.000
    H81     H    0.64902   0.84509   0.25212   1.000
    H82     H    0.08296   0.93734   0.23188   1.000
    H83     H    0.58270   0.93737   0.23188   1.000
    H84     H    0.42124   0.84058   0.36559   1.000
    H85     H    0.92170   0.84019   0.36531   1.000
    H86     H    0.35401   0.93460   0.34699   1.000
    H87     H    0.85428   0.93414   0.34675   1.000
    C88     C    0.91432   0.08523   0.41103   1.000
    C89     C    0.36968   0.05676   0.34524   1.000
    C90     C    0.86978   0.05655   0.34523   1.000
    C91     C    0.35267   0.95823   0.21193   1.000
    H92     H    0.48334   0.74690   0.59300   1.000
    H93     H    0.98345   0.74693   0.59309   1.000
    H94     H    0.41704   0.76782   0.70570   1.000
    H95     H    0.91708   0.76783   0.70577   1.000
    H96     H    0.25418   0.63562   0.47632   1.000
    H97     H    0.75431   0.63571   0.47630   1.000
    H98     H    0.18692   0.65501   0.58908   1.000
    H99     H    0.68698   0.65505   0.58906   1.000
    C100    C    0.41658   0.67751   0.21870   1.000
    C101    C    0.91597   0.67745   0.21880   1.000
    C102    C    0.45933   0.68905   0.16273   1.000
    C103    C    0.95880   0.68914   0.16290   1.000
    C104    C    0.41533   0.72712   0.13503   1.000
    C105    C    0.91489   0.72716   0.13510   1.000
    C106    C    0.45344   0.73836   0.08261   1.000
    C107    C    0.95314   0.73841   0.08272   1.000
    C108    C    0.04248   0.66305   0.13772   1.000
    C109    C    0.54293   0.66284   0.13740   1.000
    C110    C    0.08057   0.67425   0.08525   1.000
    C111    C    0.58090   0.67407   0.08491   1.000
    C112    C    0.03633   0.71171   0.05666   1.000
    C113    C    0.53658   0.71160   0.05640   1.000
    C114    C    0.01937   0.74572   0.95715   1.000
    C115    C    0.51941   0.74572   0.95702   1.000
    C116    C    0.08343   0.54124   0.32305   1.000
    C117    C    0.58361   0.54133   0.32318   1.000
    C118    C    0.12603   0.47345   0.31070   1.000
    C119    C    0.62617   0.47352   0.31080   1.000
    C120    C    0.25172   0.40823   0.13446   1.000
    C121    C    0.75162   0.40821   0.13442   1.000
    C122    C    0.21360   0.34475   0.08221   1.000
    C123    C    0.71357   0.34470   0.08215   1.000
    C124    C    0.12360   0.47450   0.13733   1.000
    C125    C    0.08176   0.40802   0.27295   1.000
    C126    C    0.58187   0.40810   0.27301   1.000
    C127    C    0.12004   0.34428   0.26123   1.000
    C128    C    0.62010   0.34433   0.26126   1.000
    C129    C    0.21003   0.47393   0.33610   1.000
    C130    C    0.71017   0.47395   0.33627   1.000
    C131    C    0.24814   0.41017   0.32448   1.000
    C132    C    0.74823   0.41016   0.32452   1.000
    C133    C    0.20354   0.34450   0.28728   1.000
    C134    C    0.70360   0.34452   0.28730   1.000
    C135    C    0.18618   0.21138   0.25401   1.000
    C136    C    0.68619   0.21138   0.25400   1.000
    C137    C    0.24971   0.78177   0.45936   1.000
    C138    C    0.74955   0.78175   0.45920   1.000
    C139    C    0.29238   0.83761   0.52674   1.000
    C140    C    0.79233   0.83753   0.52650   1.000
    C141    C    0.24820   0.86542   0.59230   1.000
    C142    C    0.74819   0.86535   0.59215   1.000
    C143    C    0.28632   0.91773   0.65578   1.000
    C144    C    0.78633   0.91763   0.65564   1.000
    C145    C    0.37615   0.86271   0.52589   1.000
    C146    C    0.87610   0.86263   0.52573   1.000
    C147    C    0.41414   0.91504   0.58943   1.000
    C148    C    0.91413   0.91494   0.58928   1.000
    C149    C    0.36966   0.94362   0.65522   1.000
    C150    C    0.86967   0.94352   0.65500   1.000
    C151    C    0.35268   0.04269   0.78844   1.000
    C152    C    0.85267   0.04262   0.78833   1.000
    C153    C    0.41563   0.32297   0.78151   1.000
    C154    C    0.91566   0.32296   0.78150   1.000
    C155    C    0.45862   0.31112   0.83727   1.000
    C156    C    0.95864   0.31114   0.83729   1.000
    C157    C    0.41473   0.27316   0.86513   1.000
    C158    C    0.91477   0.27320   0.86516   1.000
    C159    C    0.45308   0.26184   0.91746   1.000
    C160    C    0.95311   0.26190   0.91750   1.000
    C161    C    0.04237   0.33713   0.86240   1.000
    C162    C    0.54237   0.33707   0.86230   1.000
    C163    C    0.08054   0.32589   0.91485   1.000
    C164    C    0.58055   0.32580   0.91479   1.000
    C165    C    0.03634   0.28851   0.94352   1.000
    C166    C    0.53633   0.28842   0.94345   1.000
    C167    C    0.01932   0.25463   0.04312   1.000
    C168    C    0.51932   0.25456   0.04308   1.000
    C169    C    0.08166   0.45964   0.67688   1.000
    C170    C    0.58168   0.45962   0.67685   1.000
    C171    C    0.12461   0.52731   0.68908   1.000
    C172    C    0.62462   0.52729   0.68904   1.000
    C173    C    0.08054   0.59288   0.72673   1.000
    C174    C    0.58055   0.59286   0.72669   1.000
    C175    C    0.11905   0.65652   0.73841   1.000
    C176    C    0.61906   0.65651   0.73837   1.000
    C177    C    0.20873   0.52666   0.66378   1.000
    C178    C    0.70875   0.52665   0.66375   1.000
    C179    C    0.24712   0.59033   0.67552   1.000
    C180    C    0.74714   0.59032   0.67500   1.000
    C181    C    0.20273   0.65616   0.71259   1.000
    C182    C    0.70274   0.65615   0.71257   1.000
    C183    C    0.18611   0.78968   0.74663   1.000
    C184    C    0.68612   0.78968   0.74663   1.000
    C185    C    0.24964   0.21864   0.54120   1.000
    C186    C    0.74970   0.21855   0.54121   1.000
    C187    C    0.29238   0.16277   0.47390   1.000
    C188    C    0.79246   0.16264   0.47386   1.000
    C189    C    0.24806   0.13478   0.40838   1.000
    C190    C    0.74818   0.13465   0.40832   1.000
    C191    C    0.28616   0.08251   0.34485   1.000
    C192    C    0.78629   0.08235   0.34482   1.000
    C193    C    0.37625   0.13769   0.47463   1.000
    C194    C    0.87631   0.13754   0.47461   1.000
    C195    C    0.41426   0.08543   0.41103   1.000
    F196    F    0.60732   0.84374   0.09962   1.000
    F197    F    0.21497   0.76796   0.06952   1.000
    F198    F    0.71500   0.76796   0.06946   1.000
    F199    F    0.18149   0.81521   0.00251   1.000
    F200    F    0.68153   0.81530   0.00249   1.000
    F201    F    0.44073   0.89995   0.74417   1.000
    F202    F    0.94074   0.89991   0.74414   1.000
    F203    F    0.04825   0.93048   0.69851   1.000
    C204    C    0.85272   0.95815   0.21190   1.000
    C205    C    0.24881   0.45901   0.78154   1.000
    C206    C    0.74886   0.45896   0.78144   1.000
    C207    C    0.20661   0.52656   0.83752   1.000
    C208    C    0.70669   0.52653   0.83739   1.000
    C209    C    0.25111   0.59194   0.86533   1.000
    C210    C    0.75124   0.59189   0.86519   1.000
    C211    C    0.21329   0.65552   0.91776   1.000
    C212    C    0.71342   0.65549   0.91759   1.000
    C213    C    0.12286   0.52599   0.86281   1.000
    C214    C    0.62291   0.52598   0.86265   1.000
    C215    C    0.08521   0.58959   0.91532   1.000
    C216    C    0.58528   0.58961   0.91512   1.000
    C217    C    0.12996   0.65522   0.94380   1.000
    C218    C    0.63007   0.65521   0.94361   1.000
    C219    C    0.14726   0.78845   0.04200   1.000
    C220    C    0.64732   0.78844   0.04269   1.000
    C221    C    0.08328   0.21849   0.67732   1.000
    C222    C    0.58330   0.21850   0.67732   1.000
    C223    C    0.04047   0.16259   0.68891   1.000
    C224    C    0.54049   0.16262   0.68894   1.000
    C225    C    0.08452   0.13483   0.72690   1.000
    C226    C    0.58455   0.13487   0.72690   1.000
    C227    C    0.04644   0.08240   0.73811   1.000
    C228    C    0.54647   0.08246   0.73818   1.000
    C229    C    0.45685   0.13737   0.66281   1.000
    C230    C    0.95686   0.13732   0.66275   1.000
    C231    C    0.41892   0.08487   0.67402   1.000
    C232    C    0.91893   0.08480   0.67392   1.000
    C233    C    0.46331   0.05632   0.71145   1.000
    C234    C    0.96331   0.05624   0.71135   1.000
    C235    C    0.48056   0.95703   0.74566   1.000
    C236    C    0.98055   0.95698   0.74560   1.000
    C237    C    0.41610   0.32304   0.54085   1.000
    C238    C    0.91610   0.32299   0.54082   1.000
    C239    C    0.37401   0.31122   0.47302   1.000
    C240    C    0.87401   0.31118   0.47299   1.000
    C241    C    0.41866   0.27381   0.40770   1.000
    C242    C    0.91866   0.27377   0.40767   1.000
    C243    C    0.38080   0.26241   0.34380   1.000
    C244    C    0.88080   0.26237   0.34386   1.000
    C245    C    0.29013   0.33678   0.47335   1.000
    C246    C    0.79014   0.33675   0.47330   1.000
    C247    C    0.25241   0.32536   0.40953   1.000
    C248    C    0.75242   0.32533   0.40952   1.000
    C249    C    0.29727   0.28835   0.34393   1.000
    C250    C    0.79729   0.28832   0.34391   1.000
    C251    C    0.31399   0.25361   0.21018   1.000
    C252    C    0.81400   0.25360   0.21010   1.000
    C253    C    0.25030   0.54107   0.21820   1.000
    C254    C    0.74990   0.54106   0.21820   1.000
    C255    C    0.20747   0.47375   0.16238   1.000
    C256    C    0.70727   0.47367   0.16233   1.000
    C257    C    0.62339   0.47437   0.13727   1.000
    C258    C    0.08557   0.41093   0.08506   1.000
    C259    C    0.58545   0.41079   0.08490   1.000
    C260    C    0.13011   0.34516   0.05641   1.000
    C261    C    0.63006   0.34506   0.05634   1.000
    C262    C    0.14725   0.21188   0.95805   1.000
    C263    C    0.64725   0.21181   0.95801   1.000
    C264    C    0.08379   0.78148   0.32279   1.000
    C265    C    0.58322   0.78160   0.32277   1.000
    C266    C    0.04096   0.83736   0.31108   1.000
    C267    C    0.54046   0.83754   0.31119   1.000
    C268    C    0.08493   0.86518   0.27313   1.000
    C269    C    0.58451   0.86526   0.27300   1.000
    C270    C    0.04674   0.91764   0.26196   1.000
    C271    C    0.54645   0.91774   0.26201   1.000
    C272    C    0.45683   0.86286   0.33733   1.000
    C273    C    0.95726   0.86254   0.33711   1.000
    C274    C    0.41891   0.91539   0.32614   1.000
    C275    C    0.91922   0.91505   0.32594   1.000
    C276    C    0.46330   0.94393   0.28870   1.000
    C277    C    0.96353   0.94371   0.28860   1.000
    C278    C    0.48059   0.04333   0.25464   1.000
    C279    C    0.98063   0.04322   0.25464   1.000
    C280    C    0.41634   0.67691   0.45915   1.000
    C281    C    0.91649   0.67695   0.45920   1.000
    C282    C    0.37402   0.68898   0.52700   1.000
    C283    C    0.87414   0.68904   0.52705   1.000
    C284    C    0.41851   0.72647   0.59240   1.000
    C285    C    0.91861   0.72650   0.59247   1.000
    C286    C    0.38043   0.73809   0.65620   1.000
    C287    C    0.88049   0.73811   0.65625   1.000
    C288    C    0.29002   0.66363   0.52660   1.000
    C289    C    0.79013   0.66370   0.52665   1.000
    C290    C    0.25209   0.67527   0.59040   1.000
    C291    C    0.75216   0.67532   0.59044   1.000
    C292    C    0.29683   0.71229   0.65611   1.000
    C293    C    0.79688   0.71232   0.65613   1.000
    C294    C    0.31382   0.74655   0.78973   1.000
    C295    C    0.81383   0.74655   0.78973   1.000
    C296    C    0.08328   0.72424   0.00010   1.000
    C297    C    0.58342   0.72421   0.99993   1.000
    C298    C    0.25033   0.27551   0.27481   1.000
    C299    C    0.75034   0.27550   0.27480   1.000
    C300    C    0.41652   0.99988   0.72413   1.000
    C301    C    0.91651   0.99979   0.72402   1.000
    C302    C    0.08324   0.27613   0.00018   1.000
    C303    C    0.58320   0.27603   0.00000   1.000
    C304    C    0.24990   0.72509   0.72521   1.000
    C305    C    0.74992   0.72509   0.72521   1.000
    C306    C    0.41657   0.00050   0.27622   1.000
    C307    C    0.91669   0.00032   0.27618   1.000
    O308    O    0.45610   0.63738   0.23814   1.000
    O309    O    0.95596   0.63767   0.23845   1.000
    O310    O    0.34413   0.70874   0.24280   1.000
    O311    O    0.84317   0.70810   0.24261   1.000
    O312    O    0.12501   0.59997   0.36144   1.000
    O313    O    0.62503   0.60009   0.36182   1.000
    O314    O    0.00949   0.53530   0.29426   1.000
    O315    O    0.50982   0.53538   0.29416   1.000
    O316    O    0.28941   0.76272   0.40006   1.000
    O317    O    0.78904   0.76262   0.39981   1.000
    O318    O    0.17731   0.75741   0.46630   1.000
    O319    O    0.67712   0.75751   0.46629   1.000
    O320    O    0.45606   0.36197   0.76116   1.000
    O321    O    0.95609   0.36196   0.76115   1.000
    O322    O    0.34220   0.29321   0.75852   1.000
    O323    O    0.84225   0.29318   0.75849   1.000
    O324    O    0.12248   0.40067   0.63781   1.000
    O325    O    0.62250   0.40066   0.63777   1.000
    O326    O    0.00815   0.46597   0.70644   1.000
    O327    O    0.50818   0.46596   0.70643   1.000
    O328    O    0.28916   0.23770   0.60067   1.000
    O329    O    0.78919   0.23764   0.60063   1.000
    O330    O    0.17729   0.24311   0.53427   1.000
    O331    O    0.67736   0.24301   0.53417   1.000
    O332    O    0.20794   0.40003   0.76167   1.000
    O333    O    0.70799   0.39999   0.76160   1.000
    O334    O    0.32198   0.46544   0.75787   1.000
    O335    O    0.82202   0.46537   0.75776   1.000
    O336    O    0.04385   0.23780   0.63705   1.000
    O337    O    0.54390   0.23779   0.63703   1.000
    O338    O    0.15566   0.24268   0.70865   1.000
    O339    O    0.65569   0.24267   0.70865   1.000
    O340    O    0.37473   0.36186   0.59963   1.000
    O341    O    0.87474   0.36181   0.59960   1.000
    O342    O    0.48942   0.29335   0.53489   1.000
    O343    O    0.98943   0.29331   0.53485   1.000
    O344    O    0.21079   0.60046   0.23736   1.000
    O345    O    0.70995   0.60029   0.23742   1.000
    O346    O    0.32275   0.53399   0.24248   1.000
    O347    O    0.82248   0.53423   0.24244   1.000
    O348    O    0.04399   0.76210   0.36284   1.000
    O349    O    0.54370   0.76217   0.36289   1.000
    O350    O    0.15643   0.75744   0.29190   1.000
    O351    O    0.65569   0.75747   0.29158   1.000
    O352    O    0.37482   0.63839   0.40038   1.000
    O353    O    0.87483   0.63858   0.40047   1.000
    O354    O    0.49000   0.70607   0.46508   1.000
    O355    O    0.99027   0.70592   0.46510   1.000
    F356    F    0.05930   0.74416   0.90006   1.000
    F357    F    0.55925   0.74418   0.89990   1.000
    F358    F    0.45174   0.69860   0.93052   1.000
    F359    F    0.95172   0.69860   0.93055   1.000
    F360    F    0.48519   0.81262   0.99717   1.000
    F361    F    0.98517   0.81263   0.99723   1.000
    F362    F    0.22604   0.15602   0.25593   1.000
    F363    F    0.72605   0.15602   0.25593   1.000
    F364    F    0.11858   0.23201   0.30132   1.000
    F365    F    0.61858   0.23201   0.30132   1.000
    F366    F    0.15177   0.18447   0.18711   1.000
    F367    F    0.65178   0.18447   0.18711   1.000
    F368    F    0.39271   0.09960   0.84372   1.000
    F369    F    0.89274   0.09950   0.84360   1.000
    F370    F    0.28500   0.06946   0.76796   1.000
    F371    F    0.78499   0.06944   0.76792   1.000
    F372    F    0.31849   0.00255   0.81538   1.000
    F373    F    0.81849   0.00249   0.81528   1.000
    F374    F    0.05921   0.25604   0.10020   1.000
    F375    F    0.55922   0.25602   0.10010   1.000
    F376    F    0.45162   0.30161   0.06959   1.000
    F377    F    0.95163   0.30166   0.06963   1.000
    F378    F    0.48516   0.18767   0.00291   1.000
    F379    F    0.98516   0.18774   0.00291   1.000
    F380    F    0.22635   0.84562   0.74630   1.000
    F381    F    0.72636   0.84563   0.74630   1.000
    F382    F    0.11879   0.77024   0.69909   1.000
    F383    F    0.61880   0.77024   0.69909   1.000
    F384    F    0.15149   0.81559   0.81327   1.000
    F385    F    0.65150   0.81558   0.81326   1.000
    F386    F    0.39252   0.90200   0.15565   1.000
    F387    F    0.89252   0.90191   0.15557   1.000
    F388    F    0.28527   0.93065   0.23185   1.000
    F389    F    0.78529   0.93061   0.23184   1.000
    F390    F    0.31826   0.99973   0.18664   1.000
    F391    F    0.81830   0.99969   0.18666   1.000
    F392    F    0.10733   0.84383   0.09972   1.000
    F393    F    0.54825   0.93052   0.69854   1.000
    F394    F    0.01477   0.99717   0.81252   1.000
    F395    F    0.51479   0.99718   0.81250   1.000
    F396    F    0.27370   0.25370   0.15400   1.000
    F397    F    0.77371   0.25370   0.15408   1.000
    F398    F    0.38134   0.30105   0.22949   1.000
    F399    F    0.88135   0.30104   0.22948   1.000
    F400    F    0.34848   0.18697   0.18450   1.000
    F401    F    0.84849   0.18696   0.18457   1.000
    F402    F    0.10751   0.15553   0.90180   1.000
    F403    F    0.60753   0.15545   0.90176   1.000
    F404    F    0.21470   0.23182   0.93055   1.000
    F405    F    0.71470   0.23180   0.93053   1.000
    F406    F    0.18167   0.18668   0.99965   1.000
    F407    F    0.68168   0.18666   0.99960   1.000
    F408    F    0.44084   0.10044   0.25604   1.000
    F409    F    0.94081   0.10030   0.25605   1.000
    F410    F    0.04835   0.06966   0.30167   1.000
    F411    F    0.54834   0.06969   0.30167   1.000
    F412    F    0.01482   0.00297   0.18773   1.000
    F413    F    0.51480   0.00304   0.18774   1.000
    F414    F    0.27366   0.74630   0.84570   1.000
    F415    F    0.77367   0.74630   0.84577   1.000
    F416    F    0.38116   0.69902   0.77026   1.000
    F417    F    0.88117   0.69902   0.77027   1.000
    F418    F    0.34848   0.81314   0.81552   1.000
    F419    F    0.84849   0.81314   0.81553   1.000
loop_
    _geom_bond_atom_site_label_1
    _geom_bond_atom_site_label_2
    _geom_bond_distance
    _geom_bond_site_symmetry_2
    _ccdc_geom_bond_type
    C303   C168      1.56783      .   S
    C303   C261      1.54700      .   S
    C303   C166      1.54330  1_554   S
    C303   C263      1.56416  1_554   S
    C296   C219      1.56349      .   S
    C296   C112      1.54624      .   S
    C296   C217      1.54506  1_554   S
    C296   C114      1.56551  1_554   S
    C302   C167      1.56627      .   S
    C302   C260      1.54637      .   S
    C302   C165      1.54540  1_554   S
    C302   C262      1.56472  1_554   S
    F200   C220      1.35920      .   S
    F199   C219      1.34485      .   S
    F379   C167      1.35937  1_655   S
    F378   C168      1.35950      .   S
    C219   F197      1.37351      .   S
    C219   F392      1.36307      .   S
    C220   F198      1.36356      .   S
    C220   F196      1.35495      .   S
    C220   C297      1.56561  1_554   S
    C168   F376      1.36300      .   S
    C168   F375      1.35452      .   S
    C167   F377      1.36282  1_455   S
    C167   F374      1.35599      .   S
    C261   C123      1.40168      .   S
    C261   C259      1.40554      .   S
    C113   C106      1.40163      .   S
    C113   C111      1.40586      .   S
    C113   C297      1.54473  1_554   S
    C260   C122      1.40168      .   S
    C260   C258      1.40554      .   S
    C112   C107      1.40149  1_455   S
    C112   C110      1.40525      .   S
    H75    C123      1.08484      .   S
    H74    C122      1.08486      .   S
    H2     C106      1.08588      .   S
    H3     C107      1.08521      .   S
    H7     C111      1.08885      .   S
    H79    C259      1.08846      .   S
    H78    C258      1.08897      .   S
    H6     C110      1.08887      .   S
    C123   C121      1.39157      .   S
    C122   C120      1.39158      .   S
    C106   C104      1.39149      .   S
    C107   C105      1.39167      .   S
    C259   C257      1.39237      .   S
    C111   C109      1.39176      .   S
    C258   C124      1.39214      .   S
    C110   C108      1.39186      .   S
    C121   H73       1.08824      .   S
    C121   C256      1.39994      .   S
    C120   H72       1.08821      .   S
    C120   C255      1.40006      .   S
    C104   H0        1.08818      .   S
    C104   C102      1.40035      .   S
    C105   H1        1.08826      .   S
    C105   C103      1.40028      .   S
    C257   H77       1.08834      .   S
    C257   C256      1.40222      .   S
    C124   H76       1.08837      .   S
    C124   C255      1.40230      .   S
    C109   H5        1.08823      .   S
    C109   C102      1.40196      .   S
    C108   H4        1.08829      .   S
    C108   C103      1.40194  1_455   S
    F396   C251      1.35566      .   S
    F397   C252      1.35272      .   S
    F387   C204      1.35630      .   S
    F386   C91       1.35630      .   S
    C256   C254      1.49422      .   S
    C255   C253      1.49439      .   S
    C102   C100      1.49373      .   S
    C103   C101      1.49468      .   S
    F400   C251      1.35835      .   S
    F401   C252      1.35874      .   S
    F390   C91       1.35890      .   S
    F391   C204      1.35916      .   S
    F366   C135      1.35920      .   S
    F367   C136      1.35904      .   S
    F412   C279      1.35951  1_455   S
    F413   C278      1.35961      .   S
    C252   F399      1.36550      .   S
    C252   C299      1.56798      .   S
    C251   F398      1.36560      .   S
    C251   C298      1.56692      .   S
    C204   F389      1.36478      .   S
    C204   C307      1.56464  1_565   S
    C91    F388      1.36479      .   S
    C91    C306      1.56438  1_565   S
    C254   O345      1.28100      .   S
    C254   O347      1.27167      .   S
    C253   O344      1.28086      .   S
    C253   O346      1.27197      .   S
    C100   O308      1.28111      .   S
    C100   O310      1.27161      .   S
    C101   O309      1.28149      .   S
    C101   O311      1.27140      .   S
    H11    C128      1.08522      .   S
    H10    C127      1.08515      .   S
    H83    C271      1.08506      .   S
    H82    C270      1.08514      .   S
    H81    C269      1.08729      .   S
    H80    C268      1.08823      .   S
    H8     C125      1.08830      .   S
    H9     C126      1.08829      .   S
    C136   F363      1.35523      .   S
    C136   C299      1.56781      .   S
    C136   F365      1.36501      .   S
    C135   F362      1.35515      .   S
    C135   C298      1.56782      .   S
    C135   F364      1.36491      .   S
    C279   F409      1.35600      .   S
    C279   C307      1.56650      .   S
    C279   F410      1.36291  1_655   S
    C278   F408      1.35619      .   S
    C278   C306      1.56669      .   S
    C278   F411      1.36315      .   S
    C127   C125      1.39194      .   S
    C127   C133      1.40129      .   S
    C128   C126      1.39195      .   S
    C128   C134      1.40132      .   S
    C270   C268      1.39175      .   S
    C270   C277      1.40143  1_455   S
    C271   C269      1.38910      .   S
    C271   C276      1.40133      .   S
    C125   C118      1.40004      .   S
    C269   C267      1.40349      .   S
    C126   C119      1.40009      .   S
    C268   C266      1.40032      .   S
    C299   C134      1.54472      .   S
    C299   C250      1.54535      .   S
    C298   C133      1.54476      .   S
    C298   C249      1.54544      .   S
    C307   C277      1.54499  1_545   S
    C307   C90       1.54653      .   S
    C306   C276      1.54418  1_545   S
    C306   C89       1.54622      .   S
    C133   C131      1.40524      .   S
    C134   C132      1.40526      .   S
    C277   C275      1.40543      .   S
    C276   C274      1.40577      .   S
    O351   C265      1.27165      .   S
    O350   C264      1.27148      .   S
    H67    C244      1.09107      .   S
    O315   C117      1.27126      .   S
    O314   C116      1.27132      .   S
    H66    C243      1.08402      .   S
    H43    C192      1.08488      .   S
    H42    C191      1.08483      .   S
    C118   C116      1.49377      .   S
    C118   C129      1.40186      .   S
    C119   C117      1.49367      .   S
    C119   C130      1.40255      .   S
    C266   C264      1.49445      .   S
    C266   C273      1.40195  1_455   S
    C267   C265      1.49370      .   S
    C267   C272      1.40196      .   S
    C265   O349      1.28105      .   S
    C264   O348      1.28139      .   S
    C116   O312      1.28182      .   S
    C117   O313      1.28190      .   S
    C131   C129      1.39184      .   S
    C131   H14       1.08881      .   S
    C132   C130      1.39122      .   S
    C132   H15       1.08154      .   S
    C275   C273      1.39186      .   S
    C275   H87       1.08889      .   S
    C274   C272      1.39170      .   S
    C274   H86       1.08888      .   S
    C129   H12       1.08832      .   S
    C130   H13       1.08760      .   S
    C273   H85       1.08826      .   S
    C272   H84       1.08838      .   S
    C243   C249      1.40101      .   S
    C243   C241      1.39396      .   S
    C244   C250      1.40135      .   S
    C244   C242      1.39224      .   S
    C250   C248      1.40557      .   S
    C249   C247      1.40539      .   S
    C192   C90       1.40170      .   S
    C192   C190      1.39167      .   S
    C191   C89       1.40161      .   S
    C191   C189      1.39178      .   S
    C90    C88       1.40555      .   S
    C89    C195      1.40570      .   S
    O317   C138      1.28071      .   S
    O316   C137      1.28093      .   S
    O352   C280      1.28200      .   S
    O353   C281      1.28197      .   S
    H65    C242      1.08829      .   S
    H64    C241      1.08831      .   S
    H41    C190      1.08821      .   S
    H40    C189      1.08820      .   S
    C242   C240      1.40012      .   S
    C241   C239      1.40010      .   S
    C190   C188      1.40014      .   S
    C189   C187      1.40011      .   S
    C248   H71       1.08876      .   S
    C248   C246      1.39058      .   S
    C247   H70       1.08872      .   S
    C247   C245      1.39133      .   S
    C88    H47       1.08894      .   S
    C88    C194      1.39217      .   S
    C195   H46       1.08887      .   S
    C195   C193      1.39208      .   S
    C280   O354      1.27132      .   S
    C280   C282      1.49469      .   S
    C281   O355      1.27132      .   S
    C281   C283      1.49473      .   S
    C138   O319      1.27193      .   S
    C138   C140      1.49337      .   S
    C137   O318      1.27161      .   S
    C137   C139      1.49390      .   S
    C240   C246      1.40218      .   S
    C240   C238      1.49409      .   S
    C239   C245      1.40209      .   S
    C239   C237      1.49411      .   S
    C246   H69       1.08867      .   S
    C245   H68       1.08809      .   S
    C188   C194      1.40236      .   S
    C188   C186      1.49460      .   S
    C187   C193      1.40233      .   S
    C187   C185      1.49363      .   S
    C194   H45       1.08839      .   S
    C193   H44       1.08835      .   S
    H21    C146      1.08836      .   S
    H20    C145      1.08826      .   S
    H97    C289      1.08872      .   S
    H96    C288      1.08780      .   S
    C146   C140      1.40174      .   S
    C146   C148      1.39186      .   S
    C145   C139      1.40209      .   S
    C145   C147      1.39174      .   S
    C140   C142      1.40152      .   S
    C288   C282      1.40214      .   S
    C288   C290      1.39122      .   S
    C289   C283      1.40227      .   S
    C289   C291      1.39141      .   S
    C139   C141      1.40023      .   S
    C282   C284      1.40017      .   S
    C283   C285      1.40027      .   S
    O331   C186      1.27211      .   S
    O330   C185      1.27152      .   S
    O343   C238      1.27125      .   S
    O342   C237      1.27126      .   S
    C238   O341      1.28200      .   S
    C237   O340      1.28207      .   S
    C185   O328      1.28238      .   S
    C186   O329      1.28112      .   S
    H23    C148      1.08885      .   S
    H22    C147      1.08886      .   S
    H99    C291      1.08883      .   S
    H98    C290      1.08895      .   S
    C148   C150      1.40396      .   S
    C147   C149      1.40531      .   S
    C290   C292      1.40606      .   S
    C291   C293      1.40556      .   S
    C142   H17       1.08822      .   S
    C142   C144      1.39168      .   S
    C141   H16       1.08822      .   S
    C141   C143      1.39161      .   S
    C284   H92       1.08831      .   S
    C284   C286      1.39232      .   S
    C285   H93       1.08832      .   S
    C285   C287      1.39227      .   S
    H61    C230      1.08842      .   S
    H60    C229      1.08827      .   S
    H37    C178      1.08832      .   S
    H36    C177      1.08834      .   S
    O337   C222      1.28099      .   S
    O336   C221      1.28101      .   S
    O325   C170      1.28152      .   S
    O324   C169      1.28147      .   S
    H63    C232      1.08887      .   S
    H62    C231      1.08887      .   S
    C150   C144      1.40177      .   S
    C150   C301      1.54602      .   S
    C149   C143      1.40137      .   S
    C149   C300      1.54473      .   S
    H39    C180      1.08487      .   S
    H38    C179      1.08895      .   S
    C144   H19       1.08523      .   S
    C143   H18       1.08508      .   S
    C292   C286      1.40157      .   S
    C292   C304      1.54558      .   S
    C293   C287      1.40157      .   S
    C293   C305      1.54557      .   S
    C286   H94       1.08517      .   S
    C287   H95       1.08530      .   S
    C230   C232      1.39184      .   S
    C230   C223      1.40180  1_655   S
    C229   C231      1.39188      .   S
    C229   C224      1.40197      .   S
    C178   C180      1.39506      .   S
    C178   C172      1.40241      .   S
    C177   C179      1.39175      .   S
    C177   C171      1.40241      .   S
    C232   C234      1.40532      .   S
    C231   C233      1.40526      .   S
    C180   C182      1.40637      .   S
    C179   C181      1.40564      .   S
    C170   C172      1.49525      .   S
    C170   O327      1.27173      .   S
    C169   C171      1.49519      .   S
    C169   O326      1.27175      .   S
    C221   C223      1.49371      .   S
    C221   O338      1.27164      .   S
    C222   C224      1.49371      .   S
    C222   O339      1.27167      .   S
    C223   C225      1.40017      .   S
    C224   C226      1.39952      .   S
    C172   C174      1.40018      .   S
    C171   C173      1.40015      .   S
    F203   C236      1.36355  1_455   S
    F393   C235      1.36382      .   S
    F382   C183      1.36573      .   S
    F383   C184      1.36573      .   S
    C234   C301      1.54526  1_545   S
    C234   C227      1.40130  1_655   S
    C233   C300      1.54523  1_545   S
    C233   C228      1.40147      .   S
    C182   C305      1.54601      .   S
    C182   C176      1.40150      .   S
    C181   C304      1.54598      .   S
    C181   C175      1.40150      .   S
    C301   C236      1.56597      .   S
    C301   C152      1.56585  1_565   S
    C300   C235      1.56593      .   S
    C300   C151      1.56583  1_565   S
    C304   C183      1.56901      .   S
    C304   C294      1.56878      .   S
    C305   C184      1.56903      .   S
    C305   C295      1.56868      .   S
    C174   C176      1.39232      .   S
    C174   H33       1.08832      .   S
    C173   C175      1.39232      .   S
    C173   H32       1.08826      .   S
    C226   C228      1.39201      .   S
    C226   H57       1.08838      .   S
    C225   C227      1.39155      .   S
    C225   H56       1.08822      .   S
    C227   H58       1.08510      .   S
    C228   H59       1.08519      .   S
    C176   H35       1.08514      .   S
    C175   H34       1.08475      .   S
    F202   C236      1.35570      .   S
    F201   C235      1.35573      .   S
    C236   F394      1.35966  1_655   S
    C235   F395      1.35841      .   S
    F381   C184      1.35397      .   S
    F380   C183      1.35394      .   S
    C183   F384      1.35828      .   S
    C184   F385      1.35812      .   S
    O335   C206      1.27152      .   S
    O334   C205      1.27160      .   S
    O323   C154      1.27156      .   S
    O322   C153      1.27155      .   S
    O321   C154      1.28139      .   S
    O320   C153      1.28139      .   S
    O333   C206      1.28151      .   S
    O332   C205      1.28153      .   S
    F371   C152      1.36350      .   S
    F370   C151      1.36366      .   S
    F416   C294      1.36588      .   S
    F417   C295      1.36591      .   S
    C206   C208      1.49378      .   S
    C154   C156      1.49477      .   S
    C153   C155      1.49468      .   S
    C205   C207      1.49393      .   S
    C152   F373      1.35930      .   S
    C152   F369      1.35467      .   S
    C151   F372      1.35929      .   S
    C151   F368      1.35478      .   S
    C295   F419      1.35842      .   S
    C295   F415      1.35399      .   S
    C294   F418      1.35844      .   S
    C294   F414      1.35264      .   S
    C155   C162      1.40195      .   S
    C155   C157      1.40040      .   S
    C156   C161      1.40203  1_655   S
    C156   C158      1.40039      .   S
    C208   C214      1.40201      .   S
    C208   C210      1.40027      .   S
    C207   C213      1.40206      .   S
    C207   C209      1.40027      .   S
    H29    C162      1.08722      .   S
    H28    C161      1.08815      .   S
    H53    C214      1.08819      .   S
    H52    C213      1.08828      .   S
    H49    C210      1.08830      .   S
    H24    C157      1.08827      .   S
    H25    C158      1.08825      .   S
    H48    C209      1.08826      .   S
    C162   C164      1.39319      .   S
    C161   C163      1.39197      .   S
    C214   C216      1.39146      .   S
    C213   C215      1.39153      .   S
    C157   C159      1.39184      .   S
    C158   C160      1.39167      .   S
    C210   C212      1.39189      .   S
    C209   C211      1.39188      .   S
    F357   C115      1.35562      .   S
    F356   C114      1.35554      .   S
    F403   C263      1.35640      .   S
    F402   C262      1.35636      .   S
    C164   H31       1.08891      .   S
    C164   C166      1.40544      .   S
    C163   H30       1.08890      .   S
    C163   C165      1.40546      .   S
    C216   H55       1.08804      .   S
    C216   C218      1.40534      .   S
    C215   H54       1.08879      .   S
    C215   C217      1.40534      .   S
    C159   H26       1.08515      .   S
    C159   C166      1.40165      .   S
    C160   H27       1.08526      .   S
    C160   C165      1.40155  1_655   S
    C212   H51       1.08521      .   S
    C212   C218      1.40133      .   S
    C211   H50       1.08537      .   S
    C211   C217      1.40126      .   S
    F358   C115      1.36386      .   S
    F405   C263      1.36478      .   S
    F359   C114      1.36366  1_655   S
    F404   C262      1.36466      .   S
    C218   C297      1.54477      .   S
    C115   F360      1.35966      .   S
    C115   C297      1.56605      .   S
    C114   F361      1.35948  1_455   S
    C263   F407      1.35861      .   S
    C262   F406      1.35936      .   S
