# CIF file generated by openbabel 2.4.90, see http://openbabel.sf.net
data_I
_chemical_name_common ''
_cell_length_a 15.405
_cell_length_b 21.449
_cell_length_c 21.44
_cell_angle_alpha 119.836
_cell_angle_beta 90.02
_cell_angle_gamma 89.974
_space_group_name_H-M_alt 'P 1'
_space_group_name_Hall 'P 1'
loop_
    _symmetry_equiv_pos_as_xyz
    x,y,z
loop_
    _atom_site_label
    _atom_site_type_symbol
    _atom_site_fract_x
    _atom_site_fract_y
    _atom_site_fract_z
    _atom_site_occupancy
    Zr0     Zr   0.41541   0.60156   0.30140   1.000
    Zr1     Zr   0.91529   0.60168   0.30152   1.000
    Zr2     Zr   0.08443   0.69888   0.39870   1.000
    Zr3     Zr   0.58427   0.69893   0.39878   1.000
    Zr4     Zr   0.25070   0.69943   0.30082   1.000
    Zr5     Zr   0.74900   0.69935   0.30078   1.000
    Zr6     Zr   0.41512   0.39853   0.69861   1.000
    Zr7     Zr   0.91516   0.39848   0.69856   1.000
    Zr8     Zr   0.08378   0.30138   0.60141   1.000
    Zr9     Zr   0.58392   0.30134   0.60136   1.000
    Zr10    Zr   0.24857   0.30113   0.69950   1.000
    Zr11    Zr   0.74860   0.30108   0.69947   1.000
    N12     N    0.58313   0.66293   0.00001   1.000
    O13     O    0.50944   0.64120   0.13489   1.000
    O14     O    0.44027   0.68351   0.13591   1.000
    O15     O    0.65571   0.50673   0.86527   1.000
    O16     O    0.72586   0.54743   0.86408   1.000
    N17     N    0.75014   0.33704   0.33650   1.000
    O18     O    0.67740   0.49327   0.35840   1.000
    O19     O    0.60638   0.45275   0.31714   1.000
    O20     O    0.82255   0.35859   0.49279   1.000
    O21     O    0.89338   0.31719   0.45232   1.000
    N22     N    0.25010   0.33703   0.33653   1.000
    O23     O    0.17741   0.49323   0.35830   1.000
    O24     O    0.10624   0.45276   0.31721   1.000
    O25     O    0.32251   0.35861   0.49282   1.000
    O26     O    0.39338   0.31719   0.45233   1.000
    N27     N    0.08316   0.33734   0.00008   1.000
    O28     O    0.00939   0.35878   0.86497   1.000
    O29     O    0.93930   0.31723   0.86453   1.000
    O30     O    0.15696   0.49364   0.13459   1.000
    O31     O    0.22612   0.45255   0.13601   1.000
    N32     N    0.58308   0.33729   0.00004   1.000
    O33     O    0.50934   0.35877   0.86496   1.000
    O34     O    0.43923   0.31723   0.86452   1.000
    O35     O    0.65628   0.49355   0.13457   1.000
    O36     O    0.72598   0.45262   0.13601   1.000
    N37     N    0.41651   0.00003   0.66294   1.000
    O38     O    0.34329   0.86555   0.50669   1.000
    O39     O    0.27369   0.86409   0.54772   1.000
    O40     O    0.49021   0.13480   0.64107   1.000
    O41     O    0.55933   0.13595   0.68350   1.000
    N42     N    0.08293   0.66296   0.00013   1.000
    O43     O    0.00928   0.64132   0.13506   1.000
    O44     O    0.93951   0.68334   0.13591   1.000
    O45     O    0.15559   0.50677   0.86536   1.000
    O46     O    0.22574   0.54747   0.86419   1.000
    N47     N    0.91648   0.99997   0.66285   1.000
    O48     O    0.84275   0.86548   0.50657   1.000
    O49     O    0.77359   0.86410   0.54769   1.000
    O50     O    0.99015   0.13478   0.64104   1.000
    O51     O    0.05930   0.13594   0.68346   1.000
    N52     N    0.24955   0.66353   0.66350   1.000
    O53     O    0.17634   0.50728   0.64155   1.000
    O54     O    0.10561   0.54788   0.68300   1.000
    O55     O    0.32234   0.64175   0.50719   1.000
    O56     O    0.39335   0.68302   0.54771   1.000
    N57     N    0.74960   0.66354   0.66350   1.000
    O58     O    0.67640   0.50727   0.64153   1.000
    O59     O    0.60563   0.54789   0.68301   1.000
    O60     O    0.82233   0.64184   0.50725   1.000
    O61     O    0.89347   0.68297   0.54770   1.000
    N62     N    0.41649   0.00036   0.33740   1.000
    O63     O    0.34268   0.13489   0.49374   1.000
    O64     O    0.27351   0.13630   0.45262   1.000
    O65     O    0.49024   0.86545   0.35912   1.000
    O66     O    0.55942   0.86438   0.31679   1.000
    N67     N    0.91668   0.00022   0.33737   1.000
    O68     O    0.84279   0.13479   0.49371   1.000
    O69     O    0.77366   0.13620   0.45257   1.000
    O70     O    0.99044   0.86535   0.35907   1.000
    O71     O    0.06012   0.86433   0.31686   1.000
loop_
    _geom_bond_atom_site_label_1
    _geom_bond_atom_site_label_2
    _geom_bond_distance
    _geom_bond_site_symmetry_2
    _ccdc_geom_bond_type
    N12    O13       3.34851      .   S
    Zr0    O13       4.31174      .   S
    N12    O14       3.50024      .   S
    Zr4    O14       4.46662      .   S
    N12    O15       3.34486  1_554   S
    Zr11   O15       4.30540      .   S
    N12    O16       3.50433  1_554   S
    Zr7    O16       4.47460      .   S
    N17    O18       3.33729      .   S
    Zr3    O18       4.29659      .   S
    N17    O19       3.50100      .   S
    Zr0    O19       4.47418      .   S
    N17    O20       3.33799      .   S
    Zr7    O20       4.29784      .   S
    N17    O21       3.50175      .   S
    Zr8    O21       4.47305  1_455   S
    N22    O23       3.33719      .   S
    Zr2    O23       4.29561      .   S
    N22    O24       3.50168      .   S
    Zr1    O24       4.47534  1_655   S
    N22    O25       3.33797      .   S
    Zr6    O25       4.29794      .   S
    N22    O26       3.50201      .   S
    Zr9    O26       4.47367      .   S
    N27    O28       3.34925  1_554   S
    Zr7    O28       4.31046  1_655   S
    N27    O29       3.50617  1_454   S
    Zr11   O29       4.47741      .   S
    N27    O30       3.35099      .   S
    Zr4    O30       4.31510      .   S
    N27    O31       3.50494      .   S
    Zr0    O31       4.47390      .   S
    N32    O33       3.34884  1_554   S
    Zr6    O33       4.31003      .   S
    N32    O34       3.50564  1_554   S
    Zr10   O34       4.47690      .   S
    N32    O35       3.34764      .   S
    Zr5    O35       4.30975      .   S
    N32    O36       3.50560      .   S
    Zr1    O36       4.47564      .   S
    N37    O38       3.34669  1_545   S
    Zr4    O38       4.30851      .   S
    N37    O39       3.50427  1_545   S
    Zr2    O39       4.47246      .   S
    N37    O40       3.34916      .   S
    Zr9    O40       4.31283      .   S
    N37    O41       3.50157      .   S
    Zr11   O41       4.46831      .   S
    N42    O43       3.34815      .   S
    Zr1    O43       4.31047  1_655   S
    N42    O44       3.50496  1_455   S
    Zr5    O44       4.47483      .   S
    N42    O45       3.34547  1_554   S
    Zr10   O45       4.30606      .   S
    N42    O46       3.50524  1_554   S
    Zr6    O46       4.47588      .   S
    N47    O48       3.34979      .   S
    Zr5    O48       4.31355      .   S
    N47    O49       3.50390      .   S
    Zr3    O49       4.47185      .   S
    N47    O50       3.34902  1_565   S
    Zr8    O50       4.31259  1_455   S
    N47    O51       3.50188  1_665   S
    Zr10   O51       4.46881      .   S
    N52    O53       3.34060      .   S
    Zr8    O53       4.30116      .   S
    N52    O54       3.50479      .   S
    Zr7    O54       4.47877  1_655   S
    N52    O55       3.33916      .   S
    Zr0    O55       4.29944      .   S
    N52    O56       3.50438      .   S
    Zr3    O56       4.47835      .   S
    N57    O58       3.34075      .   S
    Zr9    O58       4.30132      .   S
    N57    O59       3.50505      .   S
    Zr6    O59       4.47913      .   S
    N57    O60       3.33841      .   S
    Zr1    O60       4.29775      .   S
    N57    O61       3.50488      .   S
    Zr2    O61       4.47962  1_455   S
    N62    O63       3.35115      .   S
    Zr10   O63       4.31566      .   S
    N62    O64       3.50520      .   S
    Zr8    O64       4.47371      .   S
    N62    O65       3.34921  1_545   S
    Zr3    O65       4.31227      .   S
    N62    O66       3.50165  1_545   S
    Zr5    O66       4.46764      .   S
    N67    O68       3.35191      .   S
    Zr11   O68       4.31643      .   S
    N67    O69       3.50587      .   S
    Zr9    O69       4.47445      .   S
    N67    O70       3.34834  1_545   S
    Zr2    O70       4.31063  1_455   S
    N67    O71       3.50594  1_645   S
    Zr4    O71       4.47522      .   S
