# CIF file generated by openbabel 2.4.90, see http://openbabel.sf.net
data_I
_chemical_name_common ''
_cell_length_a 7.58
_cell_length_b 10.5225
_cell_length_c 13.26
_cell_angle_alpha 90.014
_cell_angle_beta 90.038
_cell_angle_gamma 90.102
_space_group_name_H-M_alt 'P 1'
_space_group_name_Hall 'P 1'
loop_
    _symmetry_equiv_pos_as_xyz
    x,y,z
loop_
    _atom_site_label
    _atom_site_type_symbol
    _atom_site_fract_x
    _atom_site_fract_y
    _atom_site_fract_z
    _atom_site_occupancy
    Zr0     Zr   0.21328   0.12172   0.30675   1.000
    Zr1     Zr   0.28880   0.87918   0.80599   1.000
    Zr2     Zr   0.78719   0.62141   0.19518   1.000
    Zr3     Zr   0.71159   0.37935   0.69488   1.000
    N4      N    0.38553   0.73781   0.00438   1.000
    O5      O    0.35735   0.76573   0.92737   1.000
    O6      O    0.33436   0.89207   0.13465   1.000
    O7      O    0.35582   0.76630   0.87405   1.000
    O8      O    0.47640   0.58861   0.84567   1.000
    N9      N    0.88551   0.76309   0.99786   1.000
    O10     O    0.85701   0.73513   0.07458   1.000
    O11     O    0.83342   0.60896   0.86738   1.000
    O12     O    0.85465   0.73432   0.12774   1.000
    O13     O    0.97745   0.91194   0.15668   1.000
    N14     N    0.61485   0.23722   0.49670   1.000
    O15     O    0.64305   0.26529   0.57361   1.000
    O16     O    0.66610   0.39156   0.36670   1.000
    O17     O    0.64455   0.26618   0.62670   1.000
    O18     O    0.52401   0.08836   0.65548   1.000
    N19     N    0.11491   0.26286   0.50419   1.000
    O20     O    0.14338   0.23507   0.42745   1.000
    O21     O    0.16702   0.10870   0.63433   1.000
    O22     O    0.14567   0.23430   0.37430   1.000
    O23     O    0.02292   0.41174   0.34539   1.000
loop_
    _geom_bond_atom_site_label_1
    _geom_bond_atom_site_label_2
    _geom_bond_distance
    _geom_bond_site_symmetry_2
    _ccdc_geom_bond_type
    N4     O5        1.08386  1_554   S
    Zr1    O5        2.07066      .   S
    N4     O6        2.40232      .   S
    Zr0    O6        3.44923  1_545   S
    N4     O7        1.76827  1_554   S
    Zr1    O7        1.57657      .   S
    N4     O8        2.71520  1_554   S
    Zr3    O8        3.47005      .   S
    N9     O10       1.08087  1_556   S
    Zr2    O10       2.06621      .   S
    N9     O11       2.40322      .   S
    Zr3    O11       3.45092      .   S
    N9     O12       1.76434  1_556   S
    Zr2    O12       1.57216      .   S
    N9     O13       2.71413  1_556   S
    Zr0    O13       3.46506  1_445   S
    N14    O15       1.08272      .   S
    Zr3    O15       2.07165      .   S
    N14    O16       2.39993      .   S
    Zr2    O16       3.44418      .   S
    N14    O17       1.76470      .   S
    Zr3    O17       1.57804      .   S
    N14    O18       2.71299      .   S
    Zr1    O18       3.46404  1_565   S
    N19    O20       1.08062      .   S
    Zr0    O20       2.06575      .   S
    N19    O21       2.40163      .   S
    Zr1    O21       3.44588  1_565   S
    N19    O22       1.76389      .   S
    Zr0    O22       1.57182      .   S
    N19    O23       2.71624      .   S
    Zr2    O23       3.46974  1_655   S
