# CIF file generated by openbabel 2.4.90, see http://openbabel.sf.net
data_I
_chemical_name_common ''
_cell_length_a 7.58
_cell_length_b 10.5225
_cell_length_c 13.26
_cell_angle_alpha 90.014
_cell_angle_beta 90.038
_cell_angle_gamma 90.102
_space_group_name_H-M_alt 'P 1'
_space_group_name_Hall 'P 1'
loop_
    _symmetry_equiv_pos_as_xyz
    x,y,z
loop_
    _atom_site_label
    _atom_site_type_symbol
    _atom_site_fract_x
    _atom_site_fract_y
    _atom_site_fract_z
    _atom_site_occupancy
    N0      N    0.38553   0.73781   0.00438   1.000
    N1      N    0.88551   0.76309   0.99786   1.000
    N2      N    0.61485   0.23722   0.49670   1.000
    N3      N    0.11491   0.26286   0.50419   1.000
    Zr4     Zr   0.21328   0.12172   0.30675   1.000
    O5      O    0.17833   0.17839   0.36710   1.000
    O6      O    0.17947   0.17801   0.34053   1.000
    O7      O    0.27382   0.00689   0.22070   1.000
    O8      O    0.09537   0.01683   0.23172   1.000
    Zr9     Zr   0.78719   0.62141   0.19518   1.000
    O10     O    0.72664   0.50649   0.28094   1.000
    O11     O    0.90506   0.51658   0.27029   1.000
    O12     O    0.82210   0.67827   0.13488   1.000
    O13     O    0.82092   0.67787   0.16146   1.000
    Zr14    Zr   0.28880   0.87918   0.80599   1.000
    O15     O    0.22791   0.99394   0.72016   1.000
    O16     O    0.40641   0.98377   0.73073   1.000
    O17     O    0.32231   0.82274   0.84002   1.000
    O18     O    0.32307   0.82245   0.86668   1.000
    Zr19    Zr   0.71159   0.37935   0.69488   1.000
    O20     O    0.67807   0.32276   0.66079   1.000
    O21     O    0.67732   0.32232   0.63424   1.000
    O22     O    0.59400   0.48398   0.77027   1.000
    O23     O    0.77251   0.49415   0.78113   1.000
loop_
    _geom_bond_atom_site_label_1
    _geom_bond_atom_site_label_2
    _geom_bond_distance
    _geom_bond_site_symmetry_2
    _ccdc_geom_bond_type
    Zr4    O5        1.03288      .   S
    N3     O5        2.08016      .   S
    Zr4    O6        0.78591      .   S
    N3     O6        2.39751      .   S
    Zr4    O7        1.72462      .   S
    N0     O7        4.11947  1_565   S
    Zr4    O8        1.73253      .   S
    N1     O8        4.38736  1_666   S
    Zr9    O10       1.72209      .   S
    N2     O10       4.11452      .   S
    Zr9    O11       1.73487      .   S
    N3     O11       4.39206  1_455   S
    Zr9    O12       1.03310      .   S
    N1     O12       2.08066  1_556   S
    Zr9    O13       0.78608      .   S
    N1     O13       2.39809  1_556   S
    Zr14   O15       1.72294      .   S
    N3     O15       4.11718  1_545   S
    Zr14   O16       1.73202      .   S
    N2     O16       4.38580  1_545   S
    Zr14   O17       0.78828      .   S
    N0     O17       2.40394  1_554   S
    Zr14   O18       1.03533      .   S
    N0     O18       2.08625  1_554   S
    Zr19   O20       0.78902      .   S
    N2     O20       2.40212      .   S
    Zr19   O21       1.03583      .   S
    N2     O21       2.08540      .   S
    Zr19   O22       1.73503      .   S
    N0     O22       4.39143  1_554   S
    Zr19   O23       1.72546      .   S
    N1     O23       4.12136      .   S
