# CIF file generated by openbabel 2.4.90, see http://openbabel.sf.net
data_I
_chemical_name_common ''
_cell_length_a 23.416
_cell_length_b 15.734
_cell_length_c 18.046
_cell_angle_alpha 88.64
_cell_angle_beta 89.846
_cell_angle_gamma 90.01
_space_group_name_H-M_alt 'P 1'
_space_group_name_Hall 'P 1'
loop_
    _symmetry_equiv_pos_as_xyz
    x,y,z
loop_
    _atom_site_label
    _atom_site_type_symbol
    _atom_site_fract_x
    _atom_site_fract_y
    _atom_site_fract_z
    _atom_site_occupancy
    H0      H    0.03704   0.48830   0.19570   1.000
    H1      H    0.53703   0.48865   0.19625   1.000
    H2      H    0.22202   0.50187   0.19513   1.000
    H3      H    0.72203   0.50168   0.19560   1.000
    H4      H    0.48506   0.00151   0.85297   1.000
    H5      H    0.98508   0.00191   0.85237   1.000
    H6      H    0.27469   0.00778   0.85036   1.000
    H7      H    0.77470   0.00810   0.85053   1.000
    H8      H    0.04088   0.49215   0.05806   1.000
    H9      H    0.54085   0.49261   0.05859   1.000
    H10     H    0.21834   0.50453   0.05749   1.000
    H11     H    0.71833   0.50449   0.05799   1.000
    H12     H    0.04960   0.43232   0.52844   1.000
    H13     H    0.54960   0.43247   0.52906   1.000
    H14     H    0.20859   0.57183   0.52138   1.000
    H15     H    0.70879   0.57149   0.52206   1.000
    H16     H    0.05231   0.44157   0.66695   1.000
    H17     H    0.55229   0.44174   0.66754   1.000
    H18     H    0.20602   0.57174   0.66039   1.000
    H19     H    0.70615   0.57154   0.66102   1.000
    H20     H    0.28789   0.51037   0.80506   1.000
    H21     H    0.78785   0.51097   0.80488   1.000
    H22     H    0.47284   0.49897   0.80541   1.000
    H23     H    0.97281   0.49944   0.80520   1.000
    H24     H    0.23429   0.99784   0.14687   1.000
    H25     H    0.73435   0.99776   0.14687   1.000
    H26     H    0.02390   0.99156   0.14928   1.000
    H27     H    0.52396   0.99156   0.14986   1.000
    H28     H    0.29121   0.50634   0.94290   1.000
    H29     H    0.79116   0.50670   0.94270   1.000
    H30     H    0.46873   0.49611   0.94315   1.000
    H31     H    0.96869   0.49647   0.94296   1.000
    C32     C    0.67367   0.54130   0.55200   1.000
    C33     C    0.08597   0.46894   0.63206   1.000
    C34     C    0.58600   0.46904   0.63268   1.000
    C35     C    0.17223   0.54235   0.62839   1.000
    H36     H    0.28944   0.52799   0.47560   1.000
    H37     H    0.78937   0.52760   0.47543   1.000
    H38     H    0.46960   0.46836   0.47580   1.000
    H39     H    0.96970   0.46911   0.47565   1.000
    H40     H    0.29234   0.52313   0.33735   1.000
    H41     H    0.79230   0.52258   0.33714   1.000
    H42     H    0.46471   0.46254   0.33767   1.000
    H43     H    0.96484   0.46306   0.33754   1.000
    C44     C    0.33045   0.50539   0.91048   1.000
    C45     C    0.07808   0.49201   0.16737   1.000
    C46     C    0.57807   0.49227   0.16789   1.000
    C47     C    0.18103   0.49960   0.16000   1.000
    C48     C    0.68102   0.49955   0.16750   1.000
    C49     C    0.40906   0.92537   0.85224   1.000
    C50     C    0.90911   0.92568   0.85196   1.000
    C51     C    0.35068   0.08391   0.85158   1.000
    C52     C    0.85068   0.08428   0.85154   1.000
    C53     C    0.43849   0.00294   0.85233   1.000
    C54     C    0.93850   0.00327   0.85190   1.000
    C55     C    0.32127   0.00635   0.85083   1.000
    C56     C    0.82128   0.00671   0.85086   1.000
    C57     C    0.34868   0.92713   0.85119   1.000
    C58     C    0.84871   0.92750   0.85111   1.000
    C59     C    0.41108   0.08214   0.85205   1.000
    C60     C    0.91107   0.08246   0.85171   1.000
    C61     C    0.08001   0.49360   0.09038   1.000
    C62     C    0.58000   0.49394   0.09090   1.000
    C63     C    0.17918   0.50162   0.09006   1.000
    C64     C    0.67917   0.50168   0.09050   1.000
    C65     C    0.12954   0.49519   0.20675   1.000
    C66     C    0.62954   0.49526   0.20728   1.000
    C67     C    0.12967   0.49460   0.28830   1.000
    C68     C    0.62970   0.49460   0.28885   1.000
    C69     C    0.12948   0.49789   0.43194   1.000
    C70     C    0.62957   0.49780   0.43252   1.000
    C71     C    0.12915   0.50152   0.51350   1.000
    C72     C    0.62924   0.50143   0.51413   1.000
    C73     C    0.08463   0.46463   0.55531   1.000
    C74     C    0.58468   0.46470   0.55592   1.000
    C75     C    0.17354   0.54151   0.55145   1.000
    C76     C    0.67233   0.54221   0.62903   1.000
    C77     C    0.32879   0.50714   0.83350   1.000
    C78     C    0.82876   0.50766   0.83331   1.000
    C79     C    0.43176   0.50069   0.83368   1.000
    C80     C    0.93173   0.50115   0.83350   1.000
    C81     C    0.15832   0.07402   0.14743   1.000
    C82     C    0.65839   0.07395   0.14769   1.000
    C83     C    0.09988   0.91540   0.14834   1.000
    C84     C    0.59993   0.91538   0.14867   1.000
    C85     C    0.18771   0.99644   0.14745   1.000
    C86     C    0.68777   0.99638   0.14759   1.000
    C87     C    0.07048   0.99297   0.14883   1.000
    C88     C    0.57054   0.99295   0.14931   1.000
    C89     C    0.09792   0.07221   0.14839   1.000
    C90     C    0.59799   0.07217   0.14886   1.000
    C91     C    0.16028   0.91722   0.14791   1.000
    C92     C    0.66032   0.91718   0.14811   1.000
    C93     C    0.83041   0.50580   0.91029   1.000
    C94     C    0.42967   0.49856   0.91062   1.000
    C95     C    0.92962   0.49894   0.91045   1.000
    C96     C    0.38039   0.50466   0.79403   1.000
    C97     C    0.88036   0.50518   0.79384   1.000
    C98     C    0.38067   0.50571   0.71244   1.000
    C99     C    0.88065   0.50623   0.71225   1.000
    C100    C    0.38029   0.50268   0.56894   1.000
    C101    C    0.88028   0.50301   0.56875   1.000
    C102    C    0.37961   0.49875   0.48728   1.000
    C103    C    0.87962   0.49895   0.48710   1.000
    C104    C    0.32918   0.51390   0.44737   1.000
    C105    C    0.82915   0.51372   0.44717   1.000
    C106    C    0.42941   0.48006   0.44750   1.000
    C107    C    0.92948   0.48051   0.44734   1.000
    C108    C    0.33035   0.51063   0.37054   1.000
    C109    C    0.83035   0.51034   0.37034   1.000
    C110    C    0.42712   0.47734   0.37000   1.000
    C111    C    0.92721   0.47765   0.37054   1.000
    N112    N    0.12960   0.49877   0.05221   1.000
    N113    N    0.62958   0.49904   0.05271   1.000
    N114    N    0.17867   0.51699   0.32274   1.000
    N115    N    0.67872   0.51692   0.32328   1.000
    N116    N    0.08120   0.47063   0.32452   1.000
    N117    N    0.58125   0.47058   0.32510   1.000
    N118    N    0.17873   0.51775   0.39611   1.000
    N119    N    0.67880   0.51764   0.39666   1.000
    N120    N    0.08097   0.47344   0.39787   1.000
    N121    N    0.58105   0.47334   0.39845   1.000
    N122    N    0.12915   0.50676   0.66804   1.000
    N123    N    0.62920   0.50678   0.66870   1.000
    N124    N    0.37995   0.50080   0.94856   1.000
    N125    N    0.87990   0.50114   0.94839   1.000
    N126    N    0.42931   0.48165   0.67773   1.000
    N127    N    0.92931   0.48221   0.67756   1.000
    N128    N    0.33270   0.53203   0.67671   1.000
    N129    N    0.83267   0.53244   0.67648   1.000
    N130    N    0.42915   0.48055   0.60436   1.000
    N131    N    0.92917   0.48103   0.60419   1.000
    N132    N    0.33245   0.52988   0.60333   1.000
    N133    N    0.83243   0.53020   0.60311   1.000
    N134    N    0.37848   0.49262   0.33280   1.000
    N135    N    0.87853   0.49258   0.33263   1.000
loop_
    _geom_bond_atom_site_label_1
    _geom_bond_atom_site_label_2
    _geom_bond_distance
    _geom_bond_site_symmetry_2
    _ccdc_geom_bond_type
    N112   C63       1.34983      .   S
    N112   C61       1.34993      .   S
    N113   C64       1.34923      .   S
    N113   C62       1.35004      .   S
    H10    C63       1.08819      .   S
    H11    C64       1.08760      .   S
    H8     C61       1.08814      .   S
    H9     C62       1.08818      .   S
    C63    C47       1.26264      .   S
    C61    C45       1.38961      .   S
    C64    C48       1.38995      .   S
    C62    C46       1.38959      .   S
    H24    C85       1.09098      .   S
    H25    C86       1.09101      .   S
    C81    C85       1.40136  1_545   S
    C81    C89       1.41464      .   S
    C85    C91       1.40187      .   S
    C86    C82       1.40129  1_565   S
    C86    C92       1.40183      .   S
    C82    C90       1.41453      .   S
    C91    C83       1.41449      .   S
    C92    C84       1.41447      .   S
    C83    C87       1.40157      .   S
    C89    C87       1.40228  1_545   S
    C84    C88       1.40152      .   S
    C87    H26       1.09097      .   S
    C90    C88       1.40219  1_545   S
    C88    H27       1.09097      .   S
    C47    H2        1.15284      .   S
    C47    C65       1.47035      .   S
    C45    H0        1.08821      .   S
    C45    C65       1.40209      .   S
    C48    H3        1.08804      .   S
    C48    C66       1.40220      .   S
    C46    H1        1.08836      .   S
    C46    C66       1.40216      .   S
    C65    C67       1.47147      .   S
    C66    C68       1.47182      .   S
    C67    N114      1.35681      .   S
    C67    N116      1.35708      .   S
    C68    N115      1.35681      .   S
    C68    N117      1.35711      .   S
    N114   N118      1.32438      .   S
    N115   N119      1.32454      .   S
    N116   N120      1.32546      .   S
    N117   N121      1.32542      .   S
    N135   C109      1.34876      .   S
    N135   C111      1.34877      .   S
    N134   C110      1.34254      .   S
    N134   C108      1.34880      .   S
    H41    C109      1.08958      .   S
    H40    C108      1.08960      .   S
    H43    C111      1.08984      .   S
    H42    C110      1.08299      .   S
    C110   C106      1.40141      .   S
    C109   C105      1.38896      .   S
    C108   C104      1.38885      .   S
    C111   C107      1.38889      .   S
    N118   C69       1.35339      .   S
    N119   C70       1.35343      .   S
    N120   C69       1.35325      .   S
    N121   C70       1.35335      .   S
    C69    C71       1.47429      .   S
    C70    C72       1.47519      .   S
    C105   H37       1.08560      .   S
    C105   C103      1.40234      .   S
    C107   H39       1.08554      .   S
    C107   C103      1.40271      .   S
    C104   H36       1.08500      .   S
    C104   C102      1.40234      .   S
    C106   H38       1.08560      .   S
    C106   C102      1.40263      .   S
    C103   C101      1.47648      .   S
    C102   C100      1.47653      .   S
    C71    C75       1.40332      .   S
    C71    C73       1.40260      .   S
    C72    C32       1.40236      .   S
    C72    C74       1.40235      .   S
    H14    C75       1.08673      .   S
    H15    C32       1.08596      .   S
    H12    C73       1.08647      .   S
    H13    C74       1.08645      .   S
    C75    C35       1.38909      .   S
    C32    C76       1.39077      .   S
    C73    C33       1.38873      .   S
    C74    C34       1.38894      .   S
    C101   N133      1.35360      .   S
    C101   N131      1.35363      .   S
    C100   N132      1.35356      .   S
    C100   N130      1.35371      .   S
    N133   N129      1.32537      .   S
    N132   N128      1.32548      .   S
    N131   N127      1.32462      .   S
    N130   N126      1.32457      .   S
    C35    H18       1.09013      .   S
    C35    N122      1.34898      .   S
    C76    H19       1.09016      .   S
    C76    N123      1.34907      .   S
    C33    H16       1.08973      .   S
    C33    N122      1.34905      .   S
    C34    H17       1.08975      .   S
    C34    N123      1.34913      .   S
    N129   C99       1.35663      .   S
    N128   C98       1.35656      .   S
    N127   C99       1.35664      .   S
    N126   C98       1.35659      .   S
    C99    C97       1.47207      .   S
    C98    C96       1.47207      .   S
    C97    C78       1.40202      .   S
    C97    C80       1.40198      .   S
    C96    C77       1.40197      .   S
    C96    C79       1.40200      .   S
    H21    C78       1.08849      .   S
    H20    C77       1.08845      .   S
    H23    C80       1.08847      .   S
    H22    C79       1.08819      .   S
    C78    C93       1.38944      .   S
    C77    C44       1.38945      .   S
    C80    C95       1.38899      .   S
    C79    C94       1.38880      .   S
    H6     C55       1.09098      .   S
    H7     C56       1.09097      .   S
    C55    C57       1.40191  1_545   S
    C55    C51       1.40157      .   S
    C56    C58       1.40207  1_545   S
    C56    C52       1.40141      .   S
    C58    C50       1.41462      .   S
    C57    C49       1.41447      .   S
    C52    C60       1.41438      .   S
    C51    C59       1.41451      .   S
    C60    C54       1.40177      .   S
    C54    C50       1.40131  1_545   S
    C54    H5        1.09096      .   S
    C59    C53       1.40174      .   S
    C49    C53       1.40134  1_565   S
    C53    H4        1.09097      .   S
    C93    H29       1.08826      .   S
    C93    N125      1.35014      .   S
    C95    H31       1.08819      .   S
    C95    N125      1.35004      .   S
    C44    H28       1.08826      .   S
    C44    N124      1.35012      .   S
    C94    H30       1.08830      .   S
    C94    N124      1.35000      .   S
