# CIF file generated by openbabel 2.4.90, see http://openbabel.sf.net
data_I
_chemical_name_common ''
_cell_length_a 23.416
_cell_length_b 15.734
_cell_length_c 18.046
_cell_angle_alpha 88.64
_cell_angle_beta 89.846
_cell_angle_gamma 90.01
_space_group_name_H-M_alt 'P 1'
_space_group_name_Hall 'P 1'
loop_
    _symmetry_equiv_pos_as_xyz
    x,y,z
loop_
    _atom_site_label
    _atom_site_type_symbol
    _atom_site_fract_x
    _atom_site_fract_y
    _atom_site_fract_z
    _atom_site_occupancy
    Lv0     Lv   0.12910   0.99471   0.14806   1.000
    Lv1     Lv   0.37988   0.00464   0.85169   1.000
    Lv2     Lv   0.87989   0.00499   0.85150   1.000
    Lv3     Lv   0.12945   0.49931   0.36002   1.000
    Lv4     Lv   0.62949   0.49934   0.36085   1.000
    Lv5     Lv   0.87986   0.50095   0.64034   1.000
    Lv6     Lv   0.62916   0.99467   0.14837   1.000
    Lv7     Lv   0.37986   0.50065   0.64049   1.000
