# CIF file generated by openbabel 2.4.90, see http://openbabel.sf.net
data_I
_chemical_name_common ''
_cell_length_a 23.416
_cell_length_b 15.734
_cell_length_c 18.046
_cell_angle_alpha 88.64
_cell_angle_beta 89.846
_cell_angle_gamma 90.01
_space_group_name_H-M_alt 'P 1'
_space_group_name_Hall 'P 1'
loop_
    _symmetry_equiv_pos_as_xyz
    x,y,z
loop_
    _atom_site_label
    _atom_site_type_symbol
    _atom_site_fract_x
    _atom_site_fract_y
    _atom_site_fract_z
    _atom_site_occupancy
    H0      H    0.20133   0.75868   0.94662   1.000
    H1      H    0.70132   0.75949   0.94692   1.000
    H2      H    0.05712   0.24559   0.94949   1.000
    H3      H    0.55695   0.24535   0.95031   1.000
    H4      H    0.26128   0.88980   0.94203   1.000
    H5      H    0.76146   0.89043   0.94216   1.000
    H6      H    0.49669   0.11489   0.94514   1.000
    H7      H    0.99683   0.11510   0.94446   1.000
    H8      H    0.29114   0.66552   0.75730   1.000
    H9      H    0.79073   0.66604   0.75745   1.000
    H10     H    0.47090   0.34786   0.75839   1.000
    H11     H    0.97066   0.34822   0.75791   1.000
    H12     H    0.35560   0.79130   0.75831   1.000
    H13     H    0.85532   0.79169   0.75816   1.000
    H14     H    0.40613   0.22239   0.75844   1.000
    H15     H    0.90588   0.22270   0.75813   1.000
    H16     H    0.05409   0.75335   0.76227   1.000
    H17     H    0.55407   0.75307   0.76276   1.000
    H18     H    0.20711   0.26270   0.76094   1.000
    H19     H    0.70702   0.26333   0.76155   1.000
    H20     H    0.46558   0.66489   0.95905   1.000
    H21     H    0.96581   0.66521   0.95873   1.000
    H22     H    0.29301   0.33742   0.95938   1.000
    H23     H    0.79338   0.33783   0.95972   1.000
    H24     H    0.49290   0.88287   0.75816   1.000
    H25     H    0.99291   0.88312   0.75777   1.000
    H26     H    0.26821   0.13302   0.75610   1.000
    H27     H    0.76798   0.13356   0.75645   1.000
    H28     H    0.40225   0.79057   0.95192   1.000
    H29     H    0.90252   0.79092   0.95177   1.000
    H30     H    0.35627   0.21208   0.95210   1.000
    H31     H    0.85653   0.21243   0.95217   1.000
    H32     H    0.45087   0.24048   0.05391   1.000
    H33     H    0.95064   0.24010   0.05313   1.000
    H34     H    0.30634   0.75326   0.05015   1.000
    H35     H    0.80622   0.75305   0.05015   1.000
    H36     H    0.01095   0.10938   0.05744   1.000
    H37     H    0.51095   0.10955   0.05810   1.000
    H38     H    0.24593   0.88365   0.05459   1.000
    H39     H    0.74585   0.88349   0.05464   1.000
    H40     H    0.03925   0.33328   0.24264   1.000
    H41     H    0.53970   0.33329   0.24339   1.000
    H42     H    0.22043   0.65264   0.24342   1.000
    H43     H    0.72046   0.65260   0.24361   1.000
    H44     H    0.10419   0.20799   0.24140   1.000
    H45     H    0.60447   0.20779   0.24200   1.000
    H46     H    0.15534   0.77793   0.24263   1.000
    H47     H    0.65543   0.77796   0.24288   1.000
    H48     H    0.30266   0.24612   0.23811   1.000
    H49     H    0.80275   0.24619   0.23808   1.000
    H50     H    0.45631   0.73654   0.24034   1.000
    H51     H    0.95624   0.73656   0.24001   1.000
    H52     H    0.21521   0.33538   0.04200   1.000
    H53     H    0.71506   0.33537   0.04214   1.000
    H54     H    0.04295   0.66091   0.04185   1.000
    H55     H    0.54291   0.66100   0.04208   1.000
    H56     H    0.24172   0.11604   0.24172   1.000
    H57     H    0.74188   0.11602   0.24180   1.000
    H58     H    0.01706   0.86659   0.24400   1.000
    H59     H    0.51713   0.86656   0.24441   1.000
    H60     H    0.15206   0.20944   0.04820   1.000
    H61     H    0.65196   0.20933   0.04846   1.000
    H62     H    0.10588   0.78667   0.04830   1.000
    H63     H    0.60589   0.78671   0.04860   1.000
    C64     C    0.24253   0.70378   0.85200   1.000
    C65     C    0.74235   0.70442   0.85273   1.000
    C66     C    0.01763   0.30508   0.85417   1.000
    C67     C    0.51768   0.30484   0.85483   1.000
    C68     C    0.31297   0.84930   0.85068   1.000
    C69     C    0.81294   0.84974   0.85069   1.000
    C70     C    0.44687   0.15989   0.85221   1.000
    C71     C    0.94684   0.16018   0.85173   1.000
    C72     C    0.44324   0.84589   0.85463   1.000
    C73     C    0.94332   0.84620   0.85432   1.000
    C74     C    0.31657   0.16336   0.85371   1.000
    C75     C    0.81660   0.16377   0.85388   1.000
    C76     C    0.07007   0.21429   0.20067   1.000
    C77     C    0.57032   0.21422   0.20130   1.000
    C78     C    0.18889   0.77319   0.20093   1.000
    C79     C    0.68893   0.77315   0.20112   1.000
    C80     C    0.01406   0.70093   0.86044   1.000
    C81     C    0.51393   0.70070   0.86087   1.000
    C82     C    0.24596   0.30836   0.86015   1.000
    C83     C    0.74609   0.30889   0.86062   1.000
    C84     C    0.23439   0.76725   0.90458   1.000
    C85     C    0.73434   0.76794   0.90479   1.000
    C86     C    0.02474   0.23916   0.90680   1.000
    C87     C    0.52466   0.23893   0.90751   1.000
    C88     C    0.26831   0.83981   0.90229   1.000
    C89     C    0.76835   0.84040   0.90241   1.000
    C90     C    0.49056   0.16672   0.90488   1.000
    C91     C    0.99063   0.16696   0.90425   1.000
    C92     C    0.28566   0.71410   0.79884   1.000
    C93     C    0.78538   0.71464   0.79893   1.000
    C94     C    0.47550   0.29729   0.80024   1.000
    C95     C    0.97534   0.29759   0.79970   1.000
    C96     C    0.32130   0.78491   0.79900   1.000
    C97     C    0.82110   0.78536   0.79900   1.000
    C98     C    0.43967   0.22672   0.79997   1.000
    C99     C    0.93951   0.22702   0.79953   1.000
    C100    C    0.02099   0.76272   0.80378   1.000
    C101    C    0.52092   0.76246   0.80420   1.000
    C102    C    0.23971   0.25047   0.80279   1.000
    C103    C    0.73969   0.25102   0.80327   1.000
    C104    C    0.47104   0.71181   0.91422   1.000
    C105    C    0.97123   0.71212   0.91388   1.000
    C106    C    0.28813   0.29356   0.91402   1.000
    C107    C    0.78836   0.29401   0.91435   1.000
    C108    C    0.48665   0.83458   0.80182   1.000
    C109    C    0.98669   0.83485   0.80145   1.000
    C110    C    0.27394   0.17838   0.80028   1.000
    C111    C    0.77386   0.17888   0.80062   1.000
    C112    C    0.43557   0.78291   0.91033   1.000
    C113    C    0.93576   0.78323   0.91006   1.000
    C114    C    0.32355   0.22263   0.91005   1.000
    C115    C    0.82373   0.22303   0.91022   1.000
    C116    C    0.49166   0.29526   0.14810   1.000
    C117    C    0.99130   0.29506   0.14734   1.000
    C118    C    0.26701   0.69465   0.14627   1.000
    C119    C    0.76696   0.69453   0.14636   1.000
    C120    C    0.06214   0.14997   0.14800   1.000
    C121    C    0.56227   0.14997   0.14952   1.000
    C122    C    0.19607   0.83948   0.14811   1.000
    C123    C    0.69609   0.83941   0.14826   1.000
    C124    C    0.19251   0.15355   0.14535   1.000
    C125    C    0.69256   0.15349   0.14552   1.000
    C126    C    0.06583   0.83584   0.14657   1.000
    C127    C    0.56586   0.83584   0.14688   1.000
    C128    C    0.26299   0.29913   0.14020   1.000
    C129    C    0.76295   0.29913   0.14025   1.000
    C130    C    0.49555   0.69036   0.14132   1.000
    C131    C    0.99553   0.69030   0.14105   1.000
    C132    C    0.48380   0.23189   0.09590   1.000
    C133    C    0.98356   0.23164   0.09515   1.000
    C134    C    0.27399   0.76004   0.09304   1.000
    C135    C    0.77391   0.75989   0.09300   1.000
    C136    C    0.01768   0.15932   0.09728   1.000
    C137    C    0.51778   0.15944   0.09798   1.000
    C138    C    0.23981   0.83220   0.09527   1.000
    C139    C    0.73976   0.83207   0.09535   1.000
    C140    C    0.03423   0.28486   0.20098   1.000
    C141    C    0.53458   0.28491   0.20171   1.000
    C142    C    0.22479   0.70271   0.20104   1.000
    C143    C    0.72481   0.70264   0.20120   1.000
    C144    C    0.26976   0.23694   0.19651   1.000
    C145    C    0.76982   0.23696   0.19654   1.000
    C146    C    0.48902   0.74865   0.19830   1.000
    C147    C    0.98897   0.74864   0.19807   1.000
    C148    C    0.22047   0.28819   0.08662   1.000
    C149    C    0.72038   0.28816   0.08674   1.000
    C150    C    0.03784   0.70502   0.08702   1.000
    C151    C    0.53783   0.70509   0.08727   1.000
    C152    C    0.23561   0.16465   0.19834   1.000
    C153    C    0.73571   0.16462   0.19842   1.000
    C154    C    0.02305   0.82095   0.20012   1.000
    C155    C    0.52309   0.82094   0.20045   1.000
    C156    C    0.18511   0.21691   0.08998   1.000
    C157    C    0.68506   0.21683   0.09016   1.000
    C158    C    0.07308   0.77620   0.09053   1.000
    C159    C    0.57309   0.77624   0.09081   1.000
loop_
    _geom_bond_atom_site_label_1
    _geom_bond_atom_site_label_2
    _geom_bond_distance
    _geom_bond_site_symmetry_2
    _ccdc_geom_bond_type
    H54    C150      1.08942      .   S
    H52    C148      1.08954      .   S
    H55    C151      1.08938      .   S
    H53    C149      1.08960      .   S
    H60    C156      1.09007      .   S
    H62    C158      1.09037      .   S
    H61    C157      1.09005      .   S
    H63    C159      1.09002      .   S
    H35    C135      1.08753      .   S
    H34    C134      1.08867      .   S
    H33    C133      1.08868      .   S
    H32    C132      1.08866      .   S
    H38    C138      1.08903      .   S
    H39    C139      1.08895      .   S
    H36    C136      1.08921      .   S
    H37    C137      1.08965      .   S
    C148   C156      1.39402      .   S
    C148   C128      1.40318      .   S
    C149   C157      1.39399      .   S
    C149   C129      1.40318      .   S
    C150   C158      1.39372      .   S
    C150   C131      1.40350  1_455   S
    C151   C159      1.39365      .   S
    C151   C130      1.40325      .   S
    C156   C124      1.40570      .   S
    C157   C125      1.40571      .   S
    C158   C126      1.40577      .   S
    C159   C127      1.40573      .   S
    C135   C139      1.39041      .   S
    C135   C119      1.40117      .   S
    C134   C138      1.39041      .   S
    C134   C118      1.40010      .   S
    C133   C136      1.39044  1_655   S
    C133   C117      1.40034      .   S
    C138   C122      1.40406      .   S
    C139   C123      1.40394      .   S
    C132   C137      1.39013      .   S
    C132   C116      1.40033      .   S
    C136   C120      1.39349      .   S
    C137   C121      1.40399      .   S
    C128   C144      1.40316      .   S
    C129   C145      1.40305      .   S
    C131   C147      1.40319      .   S
    C130   C146      1.40203      .   S
    C124   C152      1.40591      .   S
    C125   C153      1.40571      .   S
    C118   C142      1.40384      .   S
    C119   C143      1.40383      .   S
    C126   C154      1.40581      .   S
    C127   C155      1.40581      .   S
    C117   C140      1.40398  1_655   S
    C120   C76       1.41728      .   S
    C116   C141      1.40366      .   S
    C122   C78       1.40598      .   S
    C123   C79       1.40595      .   S
    C121   C77       1.40591      .   S
    C144   C152      1.39010      .   S
    C144   H48       1.08904      .   S
    C145   C153      1.39002      .   S
    C145   H49       1.08903      .   S
    C147   C154      1.39085  1_655   S
    C147   H51       1.08913      .   S
    C146   C155      1.39066      .   S
    C146   H50       1.09020      .   S
    C152   H56       1.09104      .   S
    C153   H57       1.09114      .   S
    C154   H58       1.09030      .   S
    C155   H59       1.09113      .   S
    C76    C140      1.39212      .   S
    C76    H44       1.08997      .   S
    C78    C142      1.39174      .   S
    C78    H46       1.09015      .   S
    C140   H40       1.08950      .   S
    C142   H42       1.08945      .   S
    C79    C143      1.39175      .   S
    C79    H47       1.09021      .   S
    C143   H43       1.08945      .   S
    C77    C141      1.39220      .   S
    C77    H45       1.09030      .   S
    C141   H41       1.08957      .   S
    H26    C110      1.09113      .   S
    H27    C111      1.09103      .   S
    H8     C92       1.09058      .   S
    H9     C93       1.08962      .   S
    H25    C109      1.09102      .   S
    H11    C95       1.08954      .   S
    H15    C99       1.09014      .   S
    H24    C108      1.09109      .   S
    H13    C97       1.09009      .   S
    H12    C96       1.08977      .   S
    H10    C94       1.08958      .   S
    H14    C98       1.09018      .   S
    H18    C102      1.08918      .   S
    H19    C103      1.08904      .   S
    H16    C100      1.08901      .   S
    H17    C101      1.08897      .   S
    C92    C96       1.39201      .   S
    C92    C64       1.39771      .   S
    C93    C97       1.39198      .   S
    C93    C65       1.40386      .   S
    C96    C68       1.40649      .   S
    C97    C69       1.40600      .   S
    C99    C95       1.39162      .   S
    C99    C71       1.40595      .   S
    C95    C66       1.40408  1_655   S
    C98    C94       1.39170      .   S
    C98    C70       1.40595      .   S
    C94    C67       1.40385      .   S
    C110   C102      1.39052      .   S
    C110   C74       1.40585      .   S
    C111   C103      1.39040      .   S
    C111   C75       1.40579      .   S
    C109   C100      1.39034  1_655   S
    C109   C73       1.40583      .   S
    C108   C101      1.38989      .   S
    C108   C72       1.40566      .   S
    C102   C82       1.40295      .   S
    C103   C83       1.40294      .   S
    C100   C80       1.40318      .   S
    C101   C81       1.40307      .   S
    C68    C88       1.40408      .   S
    C69    C89       1.40410      .   S
    C71    C91       1.40387      .   S
    C64    C84       1.40636      .   S
    C70    C90       1.40412      .   S
    C65    C85       1.40018      .   S
    C74    C114      1.40569      .   S
    C75    C115      1.40594      .   S
    C66    C86       1.39989      .   S
    C73    C113      1.40581      .   S
    C72    C112      1.40581      .   S
    C67    C87       1.40001      .   S
    C82    C106      1.40327      .   S
    C80    C105      1.40354  1_455   S
    C83    C107      1.40335      .   S
    C81    C104      1.40326      .   S
    C88    C84       1.39036      .   S
    C88    H4        1.08915      .   S
    C89    C85       1.39030      .   S
    C89    H5        1.08929      .   S
    C91    C86       1.39028  1_655   S
    C91    H7        1.08898      .   S
    C84    H0        1.08864      .   S
    C85    H1        1.08879      .   S
    C90    C87       1.39041      .   S
    C90    H6        1.08904      .   S
    C86    H2        1.08874      .   S
    C87    H3        1.08873      .   S
    C114   C106      1.39354      .   S
    C114   H30       1.08971      .   S
    C113   C105      1.39404      .   S
    C113   H29       1.09013      .   S
    C115   C107      1.39376      .   S
    C115   H31       1.08992      .   S
    C112   C104      1.39383      .   S
    C112   H28       1.08994      .   S
    C105   H21       1.08944      .   S
    C106   H22       1.08937      .   S
    C104   H20       1.08945      .   S
    C107   H23       1.08943      .   S
