# CIF file generated by openbabel 2.4.90, see http://openbabel.sf.net
data_I
_chemical_name_common ''
_cell_length_a 23.416
_cell_length_b 15.734
_cell_length_c 18.046
_cell_angle_alpha 88.64
_cell_angle_beta 89.846
_cell_angle_gamma 90.01
_space_group_name_H-M_alt 'P 1'
_space_group_name_Hall 'P 1'
loop_
    _symmetry_equiv_pos_as_xyz
    x,y,z
loop_
    _atom_site_label
    _atom_site_type_symbol
    _atom_site_fract_x
    _atom_site_fract_y
    _atom_site_fract_z
    _atom_site_occupancy
    C0      C    0.20497   0.62686   0.85417   1.000
    C1      C    0.70485   0.62742   0.85460   1.000
    C2      C    0.05526   0.38176   0.85624   1.000
    C3      C    0.55531   0.38158   0.85690   1.000
    C4      C    0.05319   0.62553   0.86235   1.000
    C5      C    0.55312   0.62544   0.86289   1.000
    C6      C    0.20679   0.38357   0.86268   1.000
    C7      C    0.70691   0.38408   0.86317   1.000
    C8      C    0.45406   0.37219   0.14628   1.000
    C9      C    0.95361   0.37188   0.14558   1.000
    C10     C    0.30463   0.61785   0.14459   1.000
    C11     C    0.80458   0.61775   0.14462   1.000
    C12     C    0.30208   0.37458   0.13876   1.000
    C13     C    0.80199   0.37464   0.13876   1.000
    C14     C    0.45648   0.61497   0.13929   1.000
    C15     C    0.95649   0.61485   0.13911   1.000
