# CIF file generated by openbabel 2.4.90, see http://openbabel.sf.net
data_I
_chemical_name_common ''
_cell_length_a 23.416
_cell_length_b 15.734
_cell_length_c 18.046
_cell_angle_alpha 88.64
_cell_angle_beta 89.846
_cell_angle_gamma 90.01
_space_group_name_H-M_alt 'P 1'
_space_group_name_Hall 'P 1'
loop_
    _symmetry_equiv_pos_as_xyz
    x,y,z
loop_
    _atom_site_label
    _atom_site_type_symbol
    _atom_site_fract_x
    _atom_site_fract_y
    _atom_site_fract_z
    _atom_site_occupancy
    N0      N    0.12910   0.99471   0.14806   1.000
    N1      N    0.37988   0.00464   0.85169   1.000
    N2      N    0.87989   0.00499   0.85150   1.000
    N3      N    0.12945   0.49931   0.36002   1.000
    N4      N    0.62949   0.49934   0.36085   1.000
    N5      N    0.87986   0.50095   0.64034   1.000
    N6      N    0.62916   0.99467   0.14837   1.000
    N7      N    0.37986   0.50065   0.64049   1.000
    Zr8     Zr   0.37928   0.49484   0.14177   1.000
    O9      O    0.44131   0.60128   0.14197   1.000
    O10     O    0.43952   0.38652   0.14498   1.000
    O11     O    0.37958   0.49728   0.98241   1.000
    O12     O    0.31906   0.60322   0.14413   1.000
    O13     O    0.31723   0.38829   0.14143   1.000
    O14     O    0.37922   0.49573   0.29989   1.000
    Zr15    Zr   0.87915   0.49474   0.14158   1.000
    O16     O    0.93929   0.38638   0.14451   1.000
    O17     O    0.81898   0.60312   0.14408   1.000
    O18     O    0.94124   0.60121   0.14175   1.000
    O19     O    0.81714   0.38824   0.14137   1.000
    O20     O    0.87916   0.49575   0.29974   1.000
    O21     O    0.87950   0.49735   0.98225   1.000
    Zr22    Zr   0.63003   0.50467   0.85990   1.000
    O23     O    0.62978   0.50391   0.70172   1.000
    O24     O    0.56805   0.61135   0.85987   1.000
    O25     O    0.69025   0.61307   0.85620   1.000
    O26     O    0.69197   0.39813   0.85975   1.000
    O27     O    0.62982   0.50240   0.01905   1.000
    O28     O    0.56978   0.39626   0.85722   1.000
    Zr29    Zr   0.13003   0.50447   0.85933   1.000
    O30     O    0.12976   0.50379   0.70103   1.000
    O31     O    0.06810   0.61136   0.85938   1.000
    O32     O    0.19031   0.61267   0.85573   1.000
    O33     O    0.19192   0.39778   0.85926   1.000
    O34     O    0.12982   0.50220   0.01843   1.000
    O35     O    0.06976   0.39628   0.85662   1.000
loop_
    _geom_bond_atom_site_label_1
    _geom_bond_atom_site_label_2
    _geom_bond_distance
    _geom_bond_site_symmetry_2
    _ccdc_geom_bond_type
    Zr8    O9        2.21682      .   S
    N6     O9        7.59586      .   S
    Zr8    O10       2.21221      .   S
    N6     O10       7.59790  1_565   S
    Zr8    O11       2.87502  1_554   S
    N7     O11       6.16928      .   S
    Zr8    O12       2.21417      .   S
    N0     O12       7.60008      .   S
    Zr8    O13       2.21845      .   S
    N0     O13       7.59745  1_565   S
    Zr8    O14       2.85392      .   S
    N7     O14       6.14881      .   S
    Zr15   O16       2.21120      .   S
    N0     O16       7.59792  1_465   S
    Zr15   O17       2.21348      .   S
    N6     O17       7.59901      .   S
    Zr15   O18       2.21798      .   S
    N0     O18       7.59760  1_455   S
    Zr15   O19       2.21699      .   S
    N6     O19       7.59545  1_565   S
    Zr15   O20       2.85445      .   S
    N5     O20       6.14899      .   S
    Zr15   O21       2.87464  1_554   S
    N5     O21       6.16910      .   S
    Zr22   O23       2.85490      .   S
    N4     O23       6.15341      .   S
    Zr22   O24       2.21909      .   S
    N1     O24       7.59601  1_545   S
    Zr22   O25       2.21244      .   S
    N2     O25       7.59709  1_545   S
    Zr22   O26       2.21698      .   S
    N2     O26       7.59583      .   S
    Zr22   O27       2.87131  1_556   S
    N4     O27       6.16725      .   S
    Zr22   O28       2.21493      .   S
    N1     O28       7.60081      .   S
    Zr29   O30       2.85710      .   S
    N3     O30       6.15590      .   S
    Zr29   O31       2.22081      .   S
    N2     O31       7.60089  1_645   S
    Zr29   O32       2.21111      .   S
    N1     O32       7.59671  1_545   S
    Zr29   O33       2.21790      .   S
    N1     O33       7.59582      .   S
    Zr29   O34       2.87050  1_556   S
    N3     O34       6.16334      .   S
    Zr29   O35       2.21257      .   S
    N2     O35       7.59584  1_655   S
