# CIF file generated by openbabel 2.4.90, see http://openbabel.sf.net
data_I
_chemical_name_common ''
_cell_length_a 23.416
_cell_length_b 15.734
_cell_length_c 18.046
_cell_angle_alpha 88.64
_cell_angle_beta 89.846
_cell_angle_gamma 90.01
_space_group_name_H-M_alt 'P 1'
_space_group_name_Hall 'P 1'
loop_
    _symmetry_equiv_pos_as_xyz
    x,y,z
loop_
    _atom_site_label
    _atom_site_type_symbol
    _atom_site_fract_x
    _atom_site_fract_y
    _atom_site_fract_z
    _atom_site_occupancy
    Zr0     Zr   0.12994   0.50710   0.78280   1.000
    Zr1     Zr   0.62993   0.50712   0.78374   1.000
    Zr2     Zr   0.12992   0.50237   0.93789   1.000
    Zr3     Zr   0.62992   0.50283   0.93836   1.000
    Zr4     Zr   0.37844   0.49259   0.21830   1.000
    Zr5     Zr   0.87844   0.49256   0.21826   1.000
    Zr6     Zr   0.37986   0.49676   0.06270   1.000
    Zr7     Zr   0.87976   0.49678   0.06261   1.000
    Zr8     Zr   0.20497   0.62686   0.85417   1.000
    Zr9     Zr   0.70485   0.62742   0.85460   1.000
    Zr10    Zr   0.05526   0.38176   0.85624   1.000
    Zr11    Zr   0.55531   0.38158   0.85690   1.000
    Zr12    Zr   0.05319   0.62553   0.86235   1.000
    Zr13    Zr   0.55312   0.62544   0.86289   1.000
    Zr14    Zr   0.20679   0.38357   0.86268   1.000
    Zr15    Zr   0.70691   0.38408   0.86317   1.000
    Zr16    Zr   0.45406   0.37219   0.14628   1.000
    Zr17    Zr   0.95361   0.37188   0.14558   1.000
    Zr18    Zr   0.30463   0.61785   0.14459   1.000
    Zr19    Zr   0.80458   0.61775   0.14462   1.000
    Zr20    Zr   0.30208   0.37458   0.13876   1.000
    Zr21    Zr   0.80199   0.37464   0.13876   1.000
    Zr22    Zr   0.45648   0.61497   0.13929   1.000
    Zr23    Zr   0.95649   0.61485   0.13911   1.000
    Zr24    Zr   0.18008   0.60795   0.91530   1.000
    Zr25    Zr   0.67991   0.60875   0.91576   1.000
    Zr26    Zr   0.08011   0.39675   0.91729   1.000
    Zr27    Zr   0.58012   0.39674   0.91795   1.000
    Zr28    Zr   0.05775   0.58185   0.92257   1.000
    Zr29    Zr   0.55772   0.58187   0.92318   1.000
    Zr30    Zr   0.20192   0.42287   0.92346   1.000
    Zr31    Zr   0.70200   0.42348   0.92389   1.000
    Zr32    Zr   0.20053   0.58553   0.79434   1.000
    Zr33    Zr   0.70055   0.58574   0.79497   1.000
    Zr34    Zr   0.05968   0.42697   0.79674   1.000
    Zr35    Zr   0.55972   0.42670   0.79732   1.000
    Zr36    Zr   0.07977   0.61073   0.80217   1.000
    Zr37    Zr   0.57976   0.61066   0.80276   1.000
    Zr38    Zr   0.18052   0.40267   0.80267   1.000
    Zr39    Zr   0.68060   0.40299   0.80315   1.000
    Zr40    Zr   0.42900   0.39000   0.08519   1.000
    Zr41    Zr   0.92806   0.38933   0.08475   1.000
    Zr42    Zr   0.33034   0.60312   0.08390   1.000
    Zr43    Zr   0.83034   0.60314   0.08393   1.000
    Zr44    Zr   0.30747   0.41801   0.07847   1.000
    Zr45    Zr   0.80728   0.41812   0.07850   1.000
    Zr46    Zr   0.45201   0.57497   0.07881   1.000
    Zr47    Zr   0.95206   0.57470   0.07870   1.000
    Zr48    Zr   0.44978   0.41440   0.20563   1.000
    Zr49    Zr   0.94973   0.41446   0.20476   1.000
    Zr50    Zr   0.30808   0.57231   0.20398   1.000
    Zr51    Zr   0.80803   0.57212   0.20396   1.000
    Zr52    Zr   0.32777   0.38951   0.19942   1.000
    Zr53    Zr   0.82773   0.38952   0.19940   1.000
    Zr54    Zr   0.42996   0.59648   0.19943   1.000
    Zr55    Zr   0.92994   0.59649   0.19925   1.000
    O56     O    0.84352   0.45745   0.07056   1.000
    O57     O    0.91591   0.53574   0.07066   1.000
    O58     O    0.85505   0.54996   0.07327   1.000
    O59     O    0.90391   0.44306   0.07368   1.000
    O60     O    0.34366   0.45738   0.07059   1.000
    O61     O    0.41593   0.53586   0.07075   1.000
    O62     O    0.35510   0.54994   0.07330   1.000
    O63     O    0.40443   0.44338   0.07395   1.000
    O64     O    0.30478   0.39629   0.10861   1.000
    O65     O    0.80464   0.39638   0.10863   1.000
    O66     O    0.95427   0.59478   0.10891   1.000
    O67     O    0.45425   0.59497   0.10905   1.000
    O68     O    0.31748   0.61048   0.11424   1.000
    O69     O    0.81746   0.61044   0.11427   1.000
    O70     O    0.94084   0.38060   0.11517   1.000
    O71     O    0.44153   0.38109   0.11574   1.000
    O72     O    0.81486   0.38208   0.16908   1.000
    O73     O    0.31493   0.38204   0.16909   1.000
    O74     O    0.94322   0.60567   0.16918   1.000
    O75     O    0.44322   0.60572   0.16936   1.000
    O76     O    0.30635   0.59508   0.17428   1.000
    O77     O    0.80631   0.59494   0.17429   1.000
    O78     O    0.95167   0.39317   0.17517   1.000
    O79     O    0.45192   0.39329   0.17596   1.000
    O80     O    0.90419   0.54452   0.20875   1.000
    O81     O    0.85309   0.44104   0.20883   1.000
    O82     O    0.35311   0.44105   0.20886   1.000
    O83     O    0.40420   0.54454   0.20887   1.000
    O84     O    0.84324   0.53234   0.21111   1.000
    O85     O    0.34326   0.53245   0.21114   1.000
    O86     O    0.91409   0.45351   0.21151   1.000
    O87     O    0.41411   0.45350   0.21197   1.000
    O88     O    0.16524   0.54632   0.78857   1.000
    O89     O    0.09481   0.46703   0.78977   1.000
    O90     O    0.10485   0.55892   0.79249   1.000
    O91     O    0.15523   0.45488   0.79273   1.000
    O92     O    0.66524   0.54643   0.78935   1.000
    O93     O    0.59483   0.46691   0.79053   1.000
    O94     O    0.60485   0.55889   0.79325   1.000
    O95     O    0.65526   0.45505   0.79344   1.000
    O96     O    0.20275   0.60619   0.82425   1.000
    O97     O    0.70270   0.60658   0.82478   1.000
    O98     O    0.05747   0.40437   0.82649   1.000
    O99     O    0.55751   0.40414   0.82711   1.000
    O100    O    0.06648   0.61813   0.83226   1.000
    O101    O    0.19365   0.39312   0.83267   1.000
    O102    O    0.56644   0.61805   0.83282   1.000
    O103    O    0.69375   0.39354   0.83316   1.000
    O104    O    0.19252   0.61740   0.88474   1.000
    O105    O    0.69238   0.61809   0.88518   1.000
    O106    O    0.06768   0.38926   0.88677   1.000
    O107    O    0.56771   0.38916   0.88743   1.000
    O108    O    0.05547   0.60369   0.89246   1.000
    O109    O    0.20435   0.40322   0.89307   1.000
    O110    O    0.55542   0.60366   0.89304   1.000
    O111    O    0.70445   0.40378   0.89353   1.000
    O112    O    0.15500   0.55516   0.92659   1.000
    O113    O    0.65492   0.55579   0.92706   1.000
    O114    O    0.10501   0.44956   0.92759   1.000
    O115    O    0.60502   0.44978   0.92816   1.000
    O116    O    0.09384   0.54211   0.93023   1.000
    O117    O    0.59382   0.54235   0.93077   1.000
    O118    O    0.16592   0.46262   0.93067   1.000
    O119    O    0.66596   0.46316   0.93112   1.000
    O120    O    0.12993   0.50473   0.86034   1.000
    O121    O    0.62992   0.50497   0.86105   1.000
    O122    O    0.37915   0.49467   0.14050   1.000
    O123    O    0.87910   0.49467   0.14044   1.000
    N124    N    0.12910   0.99471   0.14806   1.000
    O125    O    0.25517   0.28174   0.14109   1.000
    O126    O    0.00333   0.70767   0.14192   1.000
    O127    O    0.99943   0.27803   0.14743   1.000
    O128    O    0.25884   0.71161   0.14649   1.000
    N129    N    0.37988   0.00464   0.85169   1.000
    O130    O    0.25060   0.72088   0.85212   1.000
    O131    O    0.50953   0.28785   0.85453   1.000
    O132    O    0.25381   0.29108   0.85918   1.000
    O133    O    0.50607   0.71802   0.85984   1.000
    N134    N    0.87989   0.00499   0.85150   1.000
    O135    O    0.75047   0.72147   0.85249   1.000
    O136    O    0.00948   0.28809   0.85391   1.000
    O137    O    0.75391   0.29158   0.85959   1.000
    O138    O    0.00618   0.71825   0.85942   1.000
    N139    N    0.12945   0.49931   0.36002   1.000
    O140    O    0.12950   0.50312   0.54272   1.000
    O141    O    0.12960   0.49994   0.17754   1.000
    N142    N    0.62949   0.49934   0.36085   1.000
    O143    O    0.62953   0.50314   0.54354   1.000
    O144    O    0.62962   0.50014   0.17819   1.000
    N145    N    0.87986   0.50095   0.64034   1.000
    O146    O    0.87984   0.49996   0.82292   1.000
    O147    O    0.87917   0.49676   0.45789   1.000
    N148    N    0.62916   0.99467   0.14837   1.000
    O149    O    0.49975   0.27820   0.14819   1.000
    O150    O    0.75514   0.28175   0.14116   1.000
    O151    O    0.50334   0.70773   0.14218   1.000
    O152    O    0.75881   0.71151   0.14657   1.000
    N153    N    0.37986   0.50065   0.64049   1.000
    O154    O    0.37916   0.49663   0.45802   1.000
    O155    O    0.37988   0.49971   0.82306   1.000
loop_
    _geom_bond_atom_site_label_1
    _geom_bond_atom_site_label_2
    _geom_bond_distance
    _geom_bond_site_symmetry_2
    _ccdc_geom_bond_type
    Zr7    O56       1.05756      .   S
    Zr45   O56       1.05756      .   S
    Zr7    O57       1.05737      .   S
    Zr47   O57       1.05737      .   S
    Zr7    O58       1.03876      .   S
    Zr43   O58       1.03876      .   S
    Zr7    O59       1.03303      .   S
    Zr41   O59       1.03303      .   S
    Zr6    O60       1.05710      .   S
    Zr44   O60       1.05710      .   S
    Zr6    O61       1.05734      .   S
    Zr46   O61       1.05734      .   S
    Zr6    O62       1.03926      .   S
    Zr42   O62       1.03926      .   S
    Zr6    O63       1.03450      .   S
    Zr40   O63       1.03450      .   S
    Zr44   O64       0.63845      .   S
    Zr20   O64       0.63845      .   S
    Zr45   O65       0.63835      .   S
    Zr21   O65       0.63835      .   S
    Zr47   O66       0.63867      .   S
    Zr23   O66       0.63867      .   S
    Zr46   O67       0.63862      .   S
    Zr22   O67       0.63862      .   S
    Zr42   O68       0.63725      .   S
    Zr18   O68       0.63725      .   S
    Zr43   O69       0.63728      .   S
    Zr19   O69       0.63728      .   S
    Zr41   O70       0.63786      .   S
    Zr17   O70       0.63786      .   S
    Zr40   O71       0.63784      .   S
    Zr16   O71       0.63784      .   S
    Zr21   O72       0.63864      .   S
    Zr53   O72       0.63864      .   S
    Zr20   O73       0.63856      .   S
    Zr52   O73       0.63856      .   S
    Zr23   O74       0.63822      .   S
    Zr55   O74       0.63822      .   S
    Zr22   O75       0.63828      .   S
    Zr54   O75       0.63828      .   S
    Zr18   O76       0.63885      .   S
    Zr50   O76       0.63885      .   S
    Zr19   O77       0.63887      .   S
    Zr51   O77       0.63887      .   S
    Zr17   O78       0.63859      .   S
    Zr49   O78       0.63859      .   S
    Zr16   O79       0.63866      .   S
    Zr48   O79       0.63866      .   S
    Zr55   O80       1.02669      .   S
    Zr5    O80       1.02669      .   S
    Zr53   O81       1.02245      .   S
    Zr5    O81       1.02245      .   S
    Zr52   O82       1.02251      .   S
    Zr4    O82       1.02251      .   S
    Zr54   O83       1.02635      .   S
    Zr4    O83       1.02635      .   S
    Zr51   O84       1.04163      .   S
    Zr5    O84       1.04163      .   S
    Zr50   O85       1.04192      .   S
    Zr4    O85       1.04192      .   S
    Zr49   O86       1.04503      .   S
    Zr5    O86       1.04503      .   S
    Zr48   O87       1.04507      .   S
    Zr4    O87       1.04507      .   S
    Zr0    O88       1.03826      .   S
    Zr32   O88       1.03826      .   S
    Zr0    O89       1.04181      .   S
    Zr34   O89       1.04181      .   S
    Zr0    O90       1.02308      .   S
    Zr36   O90       1.02308      .   S
    Zr0    O91       1.02546      .   S
    Zr38   O91       1.02546      .   S
    Zr1    O92       1.03908      .   S
    Zr33   O92       1.03908      .   S
    Zr1    O93       1.04237      .   S
    Zr35   O93       1.04237      .   S
    Zr1    O94       1.02185      .   S
    Zr37   O94       1.02185      .   S
    Zr1    O95       1.02346      .   S
    Zr39   O95       1.02346      .   S
    Zr32   O96       0.63897      .   S
    Zr8    O96       0.63897      .   S
    Zr33   O97       0.63882      .   S
    Zr9    O97       0.63882      .   S
    Zr34   O98       0.63889      .   S
    Zr10   O98       0.63889      .   S
    Zr35   O99       0.63909      .   S
    Zr11   O99       0.63909      .   S
    Zr36   O100      0.63827      .   S
    Zr12   O100      0.63827      .   S
    Zr38   O101      0.63826      .   S
    Zr14   O101      0.63826      .   S
    Zr37   O102      0.63823      .   S
    Zr13   O102      0.63823      .   S
    Zr39   O103      0.63828      .   S
    Zr15   O103      0.63828      .   S
    Zr8    O104      0.63758      .   S
    Zr24   O104      0.63758      .   S
    Zr9    O105      0.63770      .   S
    Zr25   O105      0.63770      .   S
    Zr10   O106      0.63713      .   S
    Zr26   O106      0.63713      .   S
    Zr11   O107      0.63719      .   S
    Zr27   O107      0.63719      .   S
    Zr12   O108      0.63837      .   S
    Zr28   O108      0.63837      .   S
    Zr14   O109      0.63833      .   S
    Zr30   O109      0.63833      .   S
    Zr13   O110      0.63846      .   S
    Zr29   O110      0.63846      .   S
    Zr15   O111      0.63832      .   S
    Zr31   O111      0.63832      .   S
    Zr24   O112      1.03317      .   S
    Zr2    O112      1.03317      .   S
    Zr25   O113      1.03424      .   S
    Zr3    O113      1.03424      .   S
    Zr26   O114      1.03578      .   S
    Zr2    O114      1.03578      .   S
    Zr27   O115      1.03837      .   S
    Zr3    O115      1.03837      .   S
    Zr28   O116      1.05859      .   S
    Zr2    O116      1.05859      .   S
    Zr29   O117      1.05675      .   S
    Zr3    O117      1.05675      .   S
    Zr30   O118      1.05936      .   S
    Zr2    O118      1.05936      .   S
    Zr31   O119      1.05942      .   S
    Zr3    O119      1.05942      .   S
    Zr0    O120      1.39899      .   S
    Zr2    O120      1.39899      .   S
    Zr1    O121      1.39474      .   S
    Zr3    O121      1.39474      .   S
    Zr4    O122      1.40364      .   S
    Zr6    O122      1.40364      .   S
    Zr5    O123      1.40408      .   S
    Zr7    O123      1.40408      .   S
    N124   O125      5.39383  1_565   S
    Zr20   O125      1.82704      .   S
    N124   O126      5.39469      .   S
    Zr23   O126      1.82795  1_655   S
    N124   O127      5.39384  1_465   S
    Zr17   O127      1.82514      .   S
    N124   O128      5.39272      .   S
    Zr18   O128      1.82480      .   S
    N129   O130      5.39356  1_545   S
    Zr8    O130      1.82440      .   S
    N129   O131      5.39276      .   S
    Zr11   O131      1.82445      .   S
    N129   O132      5.39220      .   S
    Zr14   O132      1.82717      .   S
    N129   O133      5.39127  1_545   S
    Zr13   O133      1.82639      .   S
    N134   O135      5.39221  1_545   S
    Zr9    O135      1.82435      .   S
    N134   O136      5.39035  1_655   S
    Zr10   O136      1.82361      .   S
    N134   O137      5.39353      .   S
    Zr15   O137      1.82714      .   S
    N134   O138      5.39411  1_645   S
    Zr12   O138      1.82743      .   S
    N139   O140      3.29897      .   S
    Zr0    O140      4.33445      .   S
    N139   O141      3.29290      .   S
    Zr2    O141      4.32389  1_556   S
    N142   O143      3.29866      .   S
    Zr1    O143      4.33667      .   S
    N142   O144      3.29599      .   S
    Zr3    O144      4.32724  1_556   S
    N145   O146      3.29454      .   S
    Zr7    O146      4.32458  1_554   S
    N145   O147      3.29472      .   S
    Zr5    O147      4.32653      .   S
    N148   O149      5.39330  1_565   S
    Zr16   O149      1.82502      .   S
    N148   O150      5.39332  1_565   S
    Zr21   O150      1.82686      .   S
    N148   O151      5.39395      .   S
    Zr22   O151      1.82765      .   S
    N148   O152      5.39235      .   S
    Zr19   O152      1.82466      .   S
    N153   O154      3.29507      .   S
    Zr4    O154      4.32806      .   S
    N153   O155      3.29432      .   S
    Zr6    O155      4.32366  1_554   S
