# CIF file generated by openbabel 2.4.90, see http://openbabel.sf.net
data_I
_chemical_name_common ''
_cell_length_a 14.648
_cell_length_b 15.577
_cell_length_c 17.021
_cell_angle_alpha 89.998
_cell_angle_beta 89.997
_cell_angle_gamma 116.496
_space_group_name_H-M_alt 'P 1'
_space_group_name_Hall 'P 1'
loop_
    _symmetry_equiv_pos_as_xyz
    x,y,z
loop_
    _atom_site_label
    _atom_site_type_symbol
    _atom_site_fract_x
    _atom_site_fract_y
    _atom_site_fract_z
    _atom_site_occupancy
    H0      H    0.32770   0.34497   0.48200   1.000
    H1      H    0.44061   0.20129   0.65783   1.000
    H2      H    0.54518   0.31834   0.65623   1.000
    H3      H    0.35161   0.09680   0.57592   1.000
    H4      H    0.64757   0.15866   0.48486   1.000
    H5      H    0.65181   0.41697   0.58326   1.000
    H6      H    0.89783   0.42183   0.44354   1.000
    H7      H    0.93160   0.52145   0.31440   1.000
    H8      H    0.85053   0.63523   0.29067   1.000
    H9      H    0.91855   0.63412   0.37983   1.000
    H10     H    0.99398   0.93889   0.36901   1.000
    H11     H    0.78969   0.97085   0.20032   1.000
    H12     H    0.74904   0.69740   0.25686   1.000
    H13     H    0.17716   0.77355   0.21178   1.000
    H14     H    0.19202   0.51315   0.20573   1.000
    H15     H    0.09875   0.07200   0.43440   1.000
    H16     H    0.17222   0.15502   0.98200   1.000
    H17     H    0.05932   0.29870   0.15782   1.000
    H18     H    0.95472   0.18166   0.15624   1.000
    H19     H    0.14835   0.40320   0.07590   1.000
    H20     H    0.85232   0.34136   0.98489   1.000
    H21     H    0.84813   0.08304   0.08325   1.000
    H22     H    0.60209   0.07818   0.94357   1.000
    H23     H    0.56829   0.97849   0.81448   1.000
    H24     H    0.64941   0.86473   0.79068   1.000
    H25     H    0.58138   0.86583   0.87984   1.000
    H26     H    0.50597   0.56106   0.86905   1.000
    H27     H    0.71025   0.52912   0.70032   1.000
    H28     H    0.75090   0.80257   0.75687   1.000
    H29     H    0.32282   0.72642   0.71179   1.000
    H30     H    0.30796   0.98682   0.70575   1.000
    H31     H    0.40123   0.42799   0.93450   1.000
    H32     H    0.67225   0.65501   0.51799   1.000
    H33     H    0.55934   0.79869   0.34217   1.000
    H34     H    0.45477   0.68165   0.34376   1.000
    H35     H    0.64834   0.90318   0.42400   1.000
    H36     H    0.35237   0.84133   0.51513   1.000
    H37     H    0.34814   0.58301   0.41673   1.000
    H38     H    0.10211   0.57815   0.55645   1.000
    H39     H    0.06834   0.47853   0.68558   1.000
    H40     H    0.14942   0.36475   0.70933   1.000
    H41     H    0.08140   0.36586   0.62010   1.000
    H42     H    0.00597   0.06108   0.63090   1.000
    H43     H    0.21026   0.02913   0.79968   1.000
    H44     H    0.25090   0.30258   0.74314   1.000
    H45     H    0.82279   0.22643   0.78822   1.000
    H46     H    0.80793   0.48683   0.79426   1.000
    H47     H    0.90121   0.92799   0.56551   1.000
    H48     H    0.82773   0.84497   0.01000   1.000
    H49     H    0.94063   0.70128   0.84217   1.000
    H50     H    0.04524   0.81832   0.84375   1.000
    H51     H    0.85159   0.59679   0.92400   1.000
    H52     H    0.14763   0.65862   0.01510   1.000
    H53     H    0.15182   0.91694   0.91674   1.000
    H54     H    0.39785   0.92180   0.05640   1.000
    H55     H    0.43166   0.02149   0.18552   1.000
    H56     H    0.35053   0.13525   0.20932   1.000
    H57     H    0.41856   0.13414   0.12015   1.000
    H58     H    0.49398   0.43891   0.13094   1.000
    H59     H    0.28969   0.47085   0.29967   1.000
    H60     H    0.24904   0.19741   0.24312   1.000
    H61     H    0.67713   0.27356   0.28819   1.000
    H62     H    0.69198   0.01316   0.29425   1.000
    H63     H    0.59872   0.57200   0.06550   1.000
    C64     C    0.29897   0.26774   0.48968   1.000
    C65     C    0.35229   0.23043   0.53565   1.000
    C66     C    0.49305   0.25879   0.61974   1.000
    C67     C    0.31307   0.13109   0.54326   1.000
    C68     C    0.22013   0.07250   0.50747   1.000
    C69     C    0.68393   0.23611   0.49403   1.000
    C70     C    0.63677   0.27888   0.54082   1.000
    C71     C    0.68502   0.37828   0.55004   1.000
    C72     C    0.78056   0.43104   0.51555   1.000
    C73     C    0.82330   0.38312   0.47072   1.000
    C74     C    0.05644   0.50572   0.26299   1.000
    C75     C    0.00000   0.55863   0.28420   1.000
    C76     C    0.04814   0.65664   0.26690   1.000
    C77     C    0.91388   0.67771   0.33070   1.000
    C78     C    0.87637   0.81159   0.31796   1.000
    C79     C    0.93029   0.91068   0.32786   1.000
    C80     C    0.89935   0.97018   0.28580   1.000
    N81     N    0.69013   0.14575   0.29507   1.000
    O82     O    0.44061   0.29628   0.57048   1.000
    C83     C    0.81663   0.92764   0.23441   1.000
    C84     C    0.79444   0.77433   0.26561   1.000
    C85     C    0.14152   0.69742   0.22650   1.000
    C86     C    0.14923   0.55169   0.22342   1.000
    C87     C    0.17102   0.11497   0.46335   1.000
    C88     C    0.20096   0.23225   0.98967   1.000
    C89     C    0.14765   0.26956   0.03565   1.000
    C90     C    0.00688   0.24121   0.11974   1.000
    C91     C    0.18687   0.36891   0.04320   1.000
    C92     C    0.27985   0.42749   0.00749   1.000
    C93     C    0.81597   0.26391   0.99405   1.000
    C94     C    0.86314   0.22114   0.04084   1.000
    C95     C    0.81492   0.12173   0.05003   1.000
    C96     C    0.71937   0.06897   0.01558   1.000
    C97     C    0.67663   0.11689   0.97074   1.000
    C98     C    0.44349   0.99422   0.76306   1.000
    C99     C    0.49566   0.94132   0.78420   1.000
    C100    C    0.45182   0.84332   0.76698   1.000
    C101    C    0.58606   0.82224   0.83077   1.000
    C102    C    0.62358   0.68837   0.81790   1.000
    C103    C    0.56965   0.58928   0.82789   1.000
    C104    C    0.60060   0.52979   0.78583   1.000
    C105    C    0.68331   0.57232   0.73442   1.000
    C106    C    0.70550   0.72564   0.76562   1.000
    C107    C    0.54900   0.42181   0.79613   1.000
    C108    C    0.35845   0.80254   0.72652   1.000
    C109    C    0.35076   0.94828   0.72343   1.000
    C110    C    0.32892   0.38502   0.96330   1.000
    C111    C    0.70098   0.73224   0.51032   1.000
    C112    C    0.64766   0.76955   0.46435   1.000
    C113    C    0.50690   0.74119   0.38026   1.000
    C114    C    0.68688   0.86889   0.45673   1.000
    C115    C    0.77982   0.92749   0.49252   1.000
    C116    C    0.31601   0.76387   0.50597   1.000
    C117    C    0.36317   0.72110   0.45917   1.000
    C118    C    0.31492   0.62171   0.44996   1.000
    C119    C    0.21939   0.56894   0.48444   1.000
    C120    C    0.17664   0.61686   0.52927   1.000
    C121    C    0.94350   0.49426   0.73700   1.000
    C122    C    0.99568   0.44135   0.71579   1.000
    C123    C    0.95180   0.34334   0.73305   1.000
    C124    C    0.08607   0.32226   0.66924   1.000
    C125    C    0.12358   0.18839   0.68203   1.000
    C126    C    0.06965   0.08930   0.67210   1.000
    C127    C    0.10060   0.02980   0.71419   1.000
    C128    C    0.18331   0.07233   0.76559   1.000
    C129    C    0.20550   0.22565   0.73439   1.000
    C130    C    0.85842   0.30256   0.77349   1.000
    C131    C    0.85072   0.44829   0.77650   1.000
    C132    C    0.82893   0.88502   0.53664   1.000
    C133    C    0.79899   0.76773   0.01032   1.000
    C134    C    0.85230   0.73042   0.96434   1.000
    C135    C    0.99307   0.75877   0.88025   1.000
    C136    C    0.81308   0.63107   0.95675   1.000
    C137    C    0.72010   0.57249   0.99250   1.000
    C138    C    0.18397   0.73608   0.00594   1.000
    C139    C    0.13681   0.77884   0.95915   1.000
    C140    C    0.18503   0.87825   0.94997   1.000
    C141    C    0.28058   0.93101   0.98442   1.000
    C142    C    0.32332   0.88310   0.02926   1.000
    C143    C    0.55645   0.00576   0.23694   1.000
    C144    C    0.50429   0.05866   0.21575   1.000
    C145    C    0.54813   0.15666   0.23301   1.000
    C146    C    0.41388   0.17774   0.16922   1.000
    C147    C    0.37637   0.31160   0.18200   1.000
    C148    C    0.43029   0.41069   0.17210   1.000
    C149    C    0.39935   0.47019   0.21410   1.000
    C150    C    0.31664   0.42766   0.26557   1.000
    C151    C    0.29444   0.27434   0.23436   1.000
    C152    C    0.64149   0.19744   0.27347   1.000
    C153    C    0.64919   0.05170   0.27657   1.000
    C154    C    0.67103   0.61496   0.03666   1.000
    N155    N    0.77462   0.28744   0.45921   1.000
    N156    N    0.76628   0.83211   0.22389   1.000
    N157    N    0.21079   0.21076   0.45370   1.000
    N158    N    0.19016   0.64574   0.20489   1.000
    N159    N    0.72528   0.21257   0.95925   1.000
    N160    N    0.73366   0.66786   0.72390   1.000
    N161    N    0.28916   0.28923   0.95372   1.000
    N162    N    0.30982   0.85423   0.70492   1.000
    N163    N    0.22533   0.71254   0.54078   1.000
    N164    N    0.23366   0.16786   0.77611   1.000
    N165    N    0.78916   0.78922   0.54629   1.000
    N166    N    0.80979   0.35424   0.79510   1.000
    N167    N    0.27466   0.78741   0.04070   1.000
    N168    N    0.26628   0.33212   0.27609   1.000
    N169    N    0.71079   0.71076   0.04620   1.000
    O170    O    0.54574   0.21758   0.57474   1.000
    O171    O    0.00778   0.71757   0.28634   1.000
    O172    O    0.90347   0.75445   0.36528   1.000
    O173    O    0.05931   0.20372   0.07047   1.000
    O174    O    0.95417   0.28243   0.07475   1.000
    O175    O    0.49219   0.78239   0.78636   1.000
    O176    O    0.59646   0.74550   0.86531   1.000
    O177    O    0.45688   0.38452   0.81998   1.000
    O178    O    0.55934   0.70370   0.42952   1.000
    O179    O    0.45421   0.78240   0.42526   1.000
    O180    O    0.99217   0.28241   0.71366   1.000
    O181    O    0.09647   0.24552   0.63470   1.000
    O182    O    0.94063   0.79627   0.92951   1.000
    O183    O    0.04578   0.71755   0.92524   1.000
    O184    O    0.50776   0.21759   0.21363   1.000
    O185    O    0.40348   0.25447   0.13468   1.000
loop_
    _geom_bond_atom_site_label_1
    _geom_bond_atom_site_label_2
    _geom_bond_distance
    _geom_bond_site_symmetry_2
    _ccdc_geom_bond_type
    C138   H52       1.09098      .   S
    C138   N167      1.34404      .   S
    C138   C139      1.40216  1_554   S
    C92    C91       1.39577      .   S
    C92    C110      1.39432  1_554   S
    H48    C133      1.08297      .   S
    C133   N169      1.34410      .   S
    C133   C134      1.40168  1_554   S
    C96    C95       1.39712      .   S
    C96    C97       1.39594  1_554   S
    C142   N167      1.34893      .   S
    C142   H54       1.08702      .   S
    C142   C141      1.39590  1_554   S
    C89    C91       1.39574      .   S
    C89    O173      1.37596      .   S
    C89    C88       1.40173  1_554   S
    C154   N169      1.34792      .   S
    C154   H63       1.08544      .   S
    C154   C137      1.39399  1_554   S
    C94    C95       1.39468      .   S
    C94    O174      1.37362      .   S
    C94    C93       1.40218  1_554   S
    C91    H19       1.08729      .   S
    C95    H21       1.08690      .   S
    O173   C90       1.42644      .   S
    O174   C90       1.42733  1_655   S
    C90    H18       1.09441  1_455   S
    C90    H17       1.09471      .   S
    H57    C146      1.09770      .   S
    H58    C148      1.09010      .   S
    O185   C146      1.40006      .   S
    O185   C147      1.38338      .   S
    C146   H56       1.10312      .   S
    C146   O184      1.44433      .   S
    C148   C147      1.39528      .   S
    C148   C149      1.39648      .   S
    C147   C151      1.39633      .   S
    H55    C144      1.08736      .   S
    H11    C83       1.08734      .   S
    N158   C86       1.34959      .   S
    N158   C85       1.34258      .   S
    H14    C86       1.08621      .   S
    H13    C85       1.09044      .   S
    O184   C145      1.36384      .   S
    C149   C150      1.39929      .   S
    C144   C145      1.39799      .   S
    C144   C143      1.39814      .   S
    C86    C74       1.39468      .   S
    N156   C83       1.34580      .   S
    N156   C84       1.34759      .   S
    C85    C76       1.40428      .   S
    C145   C152      1.40465      .   S
    C151   H60       1.09055      .   S
    C151   N168      1.34765      .   S
    C83    C80       1.39860      .   S
    C143   C153      1.39473      .   S
    H12    C84       1.09054      .   S
    C74    C75       1.44950      .   S
    C150   N168      1.34581      .   S
    C150   H59       1.08742      .   S
    C84    C78       1.39627      .   S
    C76    C75       1.39781      .   S
    C76    O171      1.36403      .   S
    C152   H61       1.09045      .   S
    C152   N81       1.34256      .   S
    C153   H62       1.08620      .   S
    C153   N81       1.34955      .   S
    C75    H7        1.04196  1_455   S
    C80    C79       1.39710      .   S
    O171   C77       1.44412  1_455   S
    H8     C77       1.10245      .   S
    C78    C79       1.39529      .   S
    C78    O172      1.38340      .   S
    C79    H10       1.09008      .   S
    C77    O172      1.40043      .   S
    C77    H9        1.09842      .   S
    H33    C113      1.09478      .   S
    H34    C113      1.09432      .   S
    C113   O179      1.42697      .   S
    C113   O178      1.42641      .   S
    H37    C118      1.08703      .   S
    H35    C114      1.08774      .   S
    O179   C117      1.37361      .   S
    O178   C112      1.37598      .   S
    H15    C87       1.08605      .   S
    H6     C73       1.08717      .   S
    C118   C117      1.39465      .   S
    C118   C119      1.39711      .   S
    N157   C87       1.34809      .   S
    N157   C64       1.34473      .   S
    C114   C112      1.39583      .   S
    C114   C115      1.39611      .   S
    C117   C116      1.40220      .   S
    N155   C73       1.34904      .   S
    N155   C69       1.34438      .   S
    C87    C68       1.39406      .   S
    C112   C111      1.40181      .   S
    C73    C72       1.39591      .   S
    H0     C64       1.09083      .   S
    C119   C120      1.39595      .   S
    H4     C69       1.09098      .   S
    C64    C65       1.40179      .   S
    C115   C132      1.39410      .   S
    C69    C70       1.40210      .   S
    C116   H36       1.09097      .   S
    C116   N163      1.34430      .   S
    C68    C67       1.39612      .   S
    C111   H32       1.09081      .   S
    C111   N165      1.34467      .   S
    C72    C71       1.39718      .   S
    C120   N163      1.34902      .   S
    C120   H38       1.08716      .   S
    C65    C67       1.39582      .   S
    C65    O82       1.37596      .   S
    C132   N165      1.34809      .   S
    C132   H47       1.08544      .   S
    C70    C71       1.39468      .   S
    C70    O170      1.37368      .   S
    C67    H3        1.08710      .   S
    C71    H5        1.08690      .   S
    O82    C66       1.42645      .   S
    O170   C66       1.42695      .   S
    C66    H2        1.09424      .   S
    C66    H1        1.09478      .   S
    H41    C124      1.09854      .   S
    H42    C126      1.09058      .   S
    O181   C124      1.40014      .   S
    O181   C125      1.38349      .   S
    C124   H40       1.10310      .   S
    C124   O180      1.44464  1_455   S
    C126   C125      1.39537      .   S
    C126   C127      1.39740      .   S
    C125   C129      1.39635      .   S
    H39    C122      1.08747  1_455   S
    H27    C105      1.08742      .   S
    N162   C109      1.34956      .   S
    N162   C108      1.34258      .   S
    H30    C109      1.08621      .   S
    H29    C108      1.09048      .   S
    O180   C123      1.36384      .   S
    C127   C128      1.39862      .   S
    C122   C123      1.39797      .   S
    C122   C121      1.39849      .   S
    C109   C98       1.39470      .   S
    N160   C105      1.34582      .   S
    N160   C106      1.34756      .   S
    C108   C100      1.40463      .   S
    C123   C130      1.40459      .   S
    C129   H44       1.09053      .   S
    C129   N164      1.34760      .   S
    C105   C104      1.39861      .   S
    C121   C131      1.39408      .   S
    H28    C106      1.09053      .   S
    C98    C99       1.39795      .   S
    C128   N164      1.34581      .   S
    C128   H43       1.08738      .   S
    C106   C102      1.39544      .   S
    C100   C99       1.39782      .   S
    C100   O175      1.36387      .   S
    C130   H45       1.09047      .   S
    C130   N166      1.34259      .   S
    C131   H46       1.08656      .   S
    C131   N166      1.34987      .   S
    C99    H23       1.08773      .   S
    C104   C107      1.51545      .   S
    C104   C103      1.39705      .   S
    O175   C101      1.44431      .   S
    H24    C101      1.10304      .   S
    C107   O177      1.27428      .   S
    C102   C103      1.39547      .   S
    C102   O176      1.38425      .   S
    C103   H26       1.09008      .   S
    C101   O176      1.40007      .   S
    C101   H25       1.09770      .   S
    H49    C135      1.09471      .   S
    H50    C135      1.09442  1_455   S
    C135   O183      1.42728  1_655   S
    C135   O182      1.42641      .   S
    H53    C140      1.08697      .   S
    H51    C136      1.08767      .   S
    O183   C139      1.37362      .   S
    O182   C134      1.37601      .   S
    H31    C110      1.08512      .   S
    H22    C97       1.08721      .   S
    C140   C139      1.39466      .   S
    C140   C141      1.39714      .   S
    N161   C110      1.34800      .   S
    N161   C88       1.34464      .   S
    C136   C134      1.39582      .   S
    C136   C137      1.39609      .   S
    N159   C97       1.34904      .   S
    N159   C93       1.34434      .   S
    H16    C88       1.09080      .   S
    H20    C93       1.09098      .   S
