# CIF file generated by openbabel 2.4.90, see http://openbabel.sf.net
data_I
_chemical_name_common ''
_cell_length_a 14.648
_cell_length_b 15.577
_cell_length_c 17.021
_cell_angle_alpha 89.998
_cell_angle_beta 89.997
_cell_angle_gamma 116.496
_space_group_name_H-M_alt 'P 1'
_space_group_name_Hall 'P 1'
loop_
    _symmetry_equiv_pos_as_xyz
    x,y,z
loop_
    _atom_site_label
    _atom_site_type_symbol
    _atom_site_fract_x
    _atom_site_fract_y
    _atom_site_fract_z
    _atom_site_occupancy
    Cd0     Cd   0.12706   0.27316   0.36542   1.000
    Cd1     Cd   0.65569   0.28811   0.86876   1.000
    Cd2     Cd   0.37288   0.22683   0.86542   1.000
    Cd3     Cd   0.15573   0.78809   0.63127   1.000
    Cd4     Cd   0.87288   0.72682   0.63457   1.000
    Cd5     Cd   0.34425   0.71187   0.13124   1.000
    Cd6     Cd   0.62707   0.77315   0.13457   1.000
    H7      H    0.00000   0.31108   0.47688   1.000
    H8      H    0.96388   0.18693   0.48197   1.000
    Cd9     Cd   0.84422   0.21189   0.36870   1.000
    H10     H    0.48139   0.18894   0.97689   1.000
    H11     H    0.53599   0.31309   0.98198   1.000
    H12     H    0.98144   0.68890   0.52311   1.000
    H13     H    0.03606   0.81306   0.51802   1.000
    H14     H    0.51856   0.81105   0.02310   1.000
    H15     H    0.46395   0.68690   0.01801   1.000
    C16     C    0.17255   0.96486   0.51884   1.000
    C17     C    0.83654   0.53834   0.52813   1.000
    C18     C    0.01436   0.40089   0.28553   1.000
    O19     O    0.79149   0.57523   0.57034   1.000
    O20     O    0.22305   0.93351   0.56114   1.000
    C21     C    0.95093   0.07819   0.29612   1.000
    C22     C    0.32745   0.53509   0.01887   1.000
    C23     C    0.66340   0.96163   0.02814   1.000
    C24     C    0.48556   0.09907   0.78565   1.000
    C25     C    0.82740   0.03512   0.48115   1.000
    C26     C    0.16340   0.46164   0.47186   1.000
    C27     C    0.98559   0.59909   0.71445   1.000
    C28     C    0.04902   0.92179   0.70387   1.000
    C29     C    0.67250   0.46490   0.98110   1.000
    C30     C    0.33655   0.03835   0.97185   1.000
    C31     C    0.51438   0.90090   0.21436   1.000
    C32     C    0.45095   0.57817   0.20386   1.000
    O33     O    0.92379   0.58226   0.49607   1.000
    O34     O    0.89813   0.12189   0.27999   1.000
    O35     O    0.92316   0.36174   0.31149   1.000
    O36     O    0.07376   0.36233   0.27737   1.000
    O37     O    0.08623   0.91593   0.48712   1.000
    O38     O    0.04308   0.11548   0.31998   1.000
    O39     O    0.98897   0.24737   0.44638   1.000
    O40     O    0.70847   0.92474   0.07034   1.000
    O41     O    0.27692   0.56646   0.06114   1.000
    O42     O    0.57617   0.91770   0.99606   1.000
    O43     O    0.57667   0.13818   0.81172   1.000
    O44     O    0.42621   0.13767   0.77736   1.000
    O45     O    0.41374   0.58403   0.98710   1.000
    O46     O    0.51091   0.25266   0.94640   1.000
    O47     O    0.20846   0.42475   0.42965   1.000
    O48     O    0.77690   0.06647   0.43884   1.000
    O49     O    0.07615   0.41772   0.50393   1.000
    O50     O    0.10183   0.87809   0.72000   1.000
    O51     O    0.07678   0.63823   0.68840   1.000
    O52     O    0.92618   0.63765   0.72262   1.000
    O53     O    0.91371   0.08406   0.51288   1.000
    O54     O    0.95687   0.88450   0.68002   1.000
    O55     O    0.01097   0.75262   0.55361   1.000
    O56     O    0.29147   0.07524   0.92966   1.000
    O57     O    0.72303   0.43352   0.93887   1.000
    O58     O    0.42377   0.08228   0.00000   1.000
    O59     O    0.39815   0.62188   0.22000   1.000
    O60     O    0.42326   0.86179   0.18831   1.000
    O61     O    0.57374   0.86231   0.22263   1.000
    O62     O    0.58620   0.41596   0.01280   1.000
    O63     O    0.54307   0.61546   0.18000   1.000
    O64     O    0.48903   0.74733   0.05360   1.000
loop_
    _geom_bond_atom_site_label_1
    _geom_bond_atom_site_label_2
    _geom_bond_distance
    _geom_bond_site_symmetry_2
    _ccdc_geom_bond_type
    O58    C30       1.24506  1_554   S
    O62    C29       1.26898  1_554   S
    H15    O64       1.03907      .   S
    C22    O41       1.27541      .   S
    C22    O45       1.26948  1_554   S
    H14    O64       1.02890      .   S
    C23    O40       1.27300      .   S
    C23    O42       1.27233  1_554   S
    O41    Cd5       2.35250      .   S
    O40    Cd6       2.38341      .   S
    Cd5    O60       2.30763      .   S
    Cd5    O59       2.42038      .   S
    Cd6    O63       2.33418      .   S
    Cd6    O61       2.39871      .   S
    O63    C32       1.27431      .   S
    O60    C31       1.27428      .   S
    C32    O59       1.26771      .   S
    C31    O61       1.26633      .   S
    O36    C18       1.26633      .   S
    O36    Cd0       2.39850      .   S
    O34    C21       1.26768      .   S
    O34    Cd9       2.42008      .   S
    C18    O35       1.27465  1_455   S
    C21    O38       1.27466  1_655   S
    O35    Cd9       2.30763      .   S
    O38    Cd0       2.33420      .   S
    Cd0    O47       2.38355      .   S
    Cd9    O48       2.35273      .   S
    O47    C26       1.27289      .   S
    O48    C25       1.27544      .   S
    O39    H7        1.06657  1_655   S
    O39    H8        1.03906      .   S
    C26    O49       1.27244      .   S
    C25    O53       1.26943      .   S
    O37    C16       1.26938      .   S
    O33    C17       1.27236      .   S
    H13    O55       1.03906      .   S
    C16    O20       1.27545      .   S
    H12    O55       1.02888  1_655   S
    C17    O19       1.27291      .   S
    O20    Cd3       2.35259      .   S
    O19    Cd4       2.38351      .   S
    Cd3    O51       2.30721      .   S
    Cd3    O50       2.42022      .   S
    Cd4    O54       2.33424      .   S
    Cd4    O52       2.39848      .   S
    O54    C28       1.27461  1_655   S
    O51    C27       1.27509  1_455   S
    C28    O50       1.26768      .   S
    C27    O52       1.26633      .   S
    O44    C24       1.26635      .   S
    O44    Cd2       2.39871      .   S
    C24    O43       1.27425      .   S
    O43    Cd1       2.30765      .   S
    Cd2    O56       2.38346      .   S
    Cd1    O57       2.35254      .   S
    O56    C30       1.27295      .   S
    O57    C29       1.27517      .   S
    O46    H10       1.02880      .   S
    O46    H11       1.03900      .   S
    O39    Cd9       2.34615      .   S
    O39    Cd0       2.32946  1_655   S
    O46    Cd1       2.34593      .   S
    O46    Cd2       2.32905      .   S
    O55    Cd3       2.34600      .   S
    O55    Cd4       2.32942  1_455   S
    O64    Cd5       2.34588      .   S
    O64    Cd6       2.32900      .   S
