# CIF file generated by openbabel 2.4.90, see http://openbabel.sf.net
data_I
_chemical_name_common ''
_cell_length_a 14.648
_cell_length_b 15.577
_cell_length_c 17.021
_cell_angle_alpha 89.998
_cell_angle_beta 89.997
_cell_angle_gamma 116.496
_space_group_name_H-M_alt 'P 1'
_space_group_name_Hall 'P 1'
loop_
    _symmetry_equiv_pos_as_xyz
    x,y,z
loop_
    _atom_site_label
    _atom_site_type_symbol
    _atom_site_fract_x
    _atom_site_fract_y
    _atom_site_fract_z
    _atom_site_occupancy
    C0      C    0.17255   0.96486   0.51884   1.000
    C1      C    0.83654   0.53834   0.52813   1.000
    C2      C    0.01436   0.40089   0.28553   1.000
    C3      C    0.95093   0.07819   0.29612   1.000
    C4      C    0.32745   0.53509   0.01887   1.000
    C5      C    0.66340   0.96163   0.02814   1.000
    C6      C    0.48556   0.09907   0.78565   1.000
    C7      C    0.82740   0.03512   0.48115   1.000
    C8      C    0.16340   0.46164   0.47186   1.000
    C9      C    0.98559   0.59909   0.71445   1.000
    C10     C    0.04902   0.92179   0.70387   1.000
    C11     C    0.67250   0.46490   0.98110   1.000
    C12     C    0.33655   0.03835   0.97185   1.000
    C13     C    0.51438   0.90090   0.21436   1.000
    C14     C    0.45095   0.57817   0.20386   1.000
