# CIF file generated by openbabel 2.4.90, see http://openbabel.sf.net
data_I
_chemical_name_common ''
_cell_length_a 14.648
_cell_length_b 15.577
_cell_length_c 17.021
_cell_angle_alpha 89.998
_cell_angle_beta 89.997
_cell_angle_gamma 116.496
_space_group_name_H-M_alt 'P 1'
_space_group_name_Hall 'P 1'
loop_
    _symmetry_equiv_pos_as_xyz
    x,y,z
loop_
    _atom_site_label
    _atom_site_type_symbol
    _atom_site_fract_x
    _atom_site_fract_y
    _atom_site_fract_z
    _atom_site_occupancy
    Zr0     Zr   0.84422   0.21189   0.36870   1.000
    Zr1     Zr   0.12706   0.27316   0.36542   1.000
    Zr2     Zr   0.65569   0.28811   0.86876   1.000
    Zr3     Zr   0.37288   0.22683   0.86542   1.000
    Zr4     Zr   0.15573   0.78809   0.63127   1.000
    Zr5     Zr   0.87288   0.72682   0.63457   1.000
    Zr6     Zr   0.34425   0.71187   0.13124   1.000
    Zr7     Zr   0.62707   0.77315   0.13457   1.000
    Zr8     Zr   0.00000   0.31108   0.47688   1.000
    Zr9     Zr   0.96388   0.18693   0.48197   1.000
    Zr10    Zr   0.48139   0.18894   0.97689   1.000
    Zr11    Zr   0.53599   0.31309   0.98198   1.000
    Zr12    Zr   0.98144   0.68890   0.52311   1.000
    Zr13    Zr   0.03606   0.81306   0.51802   1.000
    Zr14    Zr   0.51856   0.81105   0.02310   1.000
    Zr15    Zr   0.46395   0.68690   0.01801   1.000
    Zr16    Zr   0.17255   0.96486   0.51884   1.000
    Zr17    Zr   0.83654   0.53834   0.52813   1.000
    Zr18    Zr   0.01436   0.40089   0.28553   1.000
    Zr19    Zr   0.95093   0.07819   0.29612   1.000
    Zr20    Zr   0.32745   0.53509   0.01887   1.000
    Zr21    Zr   0.66340   0.96163   0.02814   1.000
    Zr22    Zr   0.48556   0.09907   0.78565   1.000
    Zr23    Zr   0.82740   0.03512   0.48115   1.000
    Zr24    Zr   0.16340   0.46164   0.47186   1.000
    Zr25    Zr   0.98559   0.59909   0.71445   1.000
    Zr26    Zr   0.04902   0.92179   0.70387   1.000
    Zr27    Zr   0.67250   0.46490   0.98110   1.000
    Zr28    Zr   0.33655   0.03835   0.97185   1.000
    Zr29    Zr   0.51438   0.90090   0.21436   1.000
    Zr30    Zr   0.45095   0.57817   0.20386   1.000
    Zr31    Zr   0.79149   0.57523   0.57034   1.000
    Zr32    Zr   0.22305   0.93351   0.56114   1.000
    Zr33    Zr   0.92379   0.58226   0.49607   1.000
    Zr34    Zr   0.89813   0.12189   0.27999   1.000
    Zr35    Zr   0.92316   0.36174   0.31149   1.000
    Zr36    Zr   0.07376   0.36233   0.27737   1.000
    Zr37    Zr   0.08623   0.91593   0.48712   1.000
    Zr38    Zr   0.04308   0.11548   0.31998   1.000
    Zr39    Zr   0.98897   0.24737   0.44638   1.000
    Zr40    Zr   0.70847   0.92474   0.07034   1.000
    Zr41    Zr   0.27692   0.56646   0.06114   1.000
    Zr42    Zr   0.57617   0.91770   0.99606   1.000
    Zr43    Zr   0.57667   0.13818   0.81172   1.000
    Zr44    Zr   0.42621   0.13767   0.77736   1.000
    Zr45    Zr   0.41374   0.58403   0.98710   1.000
    Zr46    Zr   0.51091   0.25266   0.94640   1.000
    Zr47    Zr   0.20846   0.42475   0.42965   1.000
    Zr48    Zr   0.77690   0.06647   0.43884   1.000
    Zr49    Zr   0.07615   0.41772   0.50393   1.000
    Zr50    Zr   0.10183   0.87809   0.72000   1.000
    Zr51    Zr   0.07678   0.63823   0.68840   1.000
    Zr52    Zr   0.92618   0.63765   0.72262   1.000
    Zr53    Zr   0.91371   0.08406   0.51288   1.000
    Zr54    Zr   0.95687   0.88450   0.68002   1.000
    Zr55    Zr   0.01097   0.75262   0.55361   1.000
    Zr56    Zr   0.29147   0.07524   0.92966   1.000
    Zr57    Zr   0.72303   0.43352   0.93887   1.000
    Zr58    Zr   0.42377   0.08228   0.00000   1.000
    Zr59    Zr   0.39815   0.62188   0.22000   1.000
    Zr60    Zr   0.42326   0.86179   0.18831   1.000
    Zr61    Zr   0.57374   0.86231   0.22263   1.000
    Zr62    Zr   0.58620   0.41596   0.01280   1.000
    Zr63    Zr   0.54307   0.61546   0.18000   1.000
    Zr64    Zr   0.48903   0.74733   0.05360   1.000
    O65     O    0.38016   0.06031   0.98592   1.000
    O66     O    0.62935   0.44043   0.99695   1.000
    O67     O    0.47649   0.71711   0.03580   1.000
    O68     O    0.30218   0.55077   0.04000   1.000
    O69     O    0.37060   0.55956   0.00298   1.000
    O70     O    0.50379   0.77919   0.03835   1.000
    O71     O    0.68593   0.94319   0.04924   1.000
    O72     O    0.61979   0.93967   0.01210   1.000
    O73     O    0.31059   0.63916   0.09619   1.000
    O74     O    0.66777   0.84895   0.10245   1.000
    O75     O    0.38376   0.78683   0.15977   1.000
    O76     O    0.37120   0.66687   0.17562   1.000
    O77     O    0.58507   0.69430   0.15728   1.000
    O78     O    0.60040   0.81773   0.17860   1.000
    O79     O    0.49701   0.59681   0.19193   1.000
    O80     O    0.46882   0.88135   0.20133   1.000
    O81     O    0.42455   0.60002   0.21193   1.000
    O82     O    0.54406   0.88161   0.21849   1.000
    O83     O    0.04406   0.38161   0.28145   1.000
    O84     O    0.10041   0.31774   0.32139   1.000
    O85     O    0.92453   0.10004   0.28805   1.000
    O86     O    0.87117   0.16689   0.32434   1.000
    O87     O    0.96876   0.38131   0.29851   1.000
    O88     O    0.99701   0.09683   0.30805   1.000
    O89     O    0.88369   0.28681   0.34009   1.000
    O90     O    0.08507   0.19432   0.34270   1.000
    O91     O    0.16776   0.34895   0.39753   1.000
    O92     O    0.81056   0.13918   0.40377   1.000
    O93     O    0.18593   0.44320   0.45075   1.000
    O94     O    0.80215   0.05079   0.45999   1.000
    O95     O    0.99449   0.27923   0.46163   1.000
    O96     O    0.97643   0.21715   0.46417   1.000
    O97     O    0.11978   0.43968   0.48789   1.000
    O98     O    0.87056   0.05959   0.49701   1.000
    O99     O    0.12939   0.94040   0.50298   1.000
    O100    O    0.88017   0.56030   0.51210   1.000
    O101    O    0.02352   0.78284   0.53582   1.000
    O102    O    0.19780   0.94919   0.53999   1.000
    O103    O    0.99621   0.72076   0.53836   1.000
    O104    O    0.81401   0.55678   0.54923   1.000
    O105    O    0.18939   0.86080   0.59620   1.000
    O106    O    0.83219   0.65103   0.60245   1.000
    O107    O    0.11625   0.71316   0.65983   1.000
    O108    O    0.12878   0.83309   0.67563   1.000
    O109    O    0.91488   0.80566   0.65729   1.000
    O110    O    0.89953   0.68224   0.67860   1.000
    O111    O    0.00294   0.90315   0.69194   1.000
    O112    O    0.03118   0.61866   0.70142   1.000
    O113    O    0.07542   0.89994   0.71193   1.000
    O114    O    0.95588   0.61837   0.71854   1.000
    O115    O    0.45588   0.11837   0.78150   1.000
    O116    O    0.39954   0.18225   0.82139   1.000
    O117    O    0.53111   0.11862   0.79868   1.000
    O118    O    0.61618   0.21314   0.84024   1.000
    O119    O    0.33218   0.15103   0.89754   1.000
    O120    O    0.68936   0.36082   0.90381   1.000
    O121    O    0.31401   0.05679   0.95075   1.000
    O122    O    0.69776   0.44921   0.95998   1.000
    O123    O    0.49615   0.22080   0.96164   1.000
    O124    O    0.52345   0.28287   0.96419   1.000
    O125    O    0.91660   0.22963   0.40754   1.000
    O126    O    0.05802   0.26026   0.40590   1.000
    O127    O    0.58330   0.27038   0.90758   1.000
    O128    O    0.44190   0.23974   0.90591   1.000
    O129    O    0.08335   0.77036   0.59244   1.000
    O130    O    0.94193   0.73972   0.59409   1.000
    O131    O    0.41664   0.72960   0.09242   1.000
    O132    O    0.55805   0.76024   0.09408   1.000
    N133    N    0.03904   0.27490   0.72453   1.000
    O134    O    0.88589   0.29804   0.77823   1.000
    O135    O    0.00179   0.41079   0.72513   1.000
    O136    O    0.17116   0.23612   0.77265   1.000
    O137    O    0.05693   0.12535   0.71678   1.000
    N138    N    0.00467   0.24670   0.02638   1.000
    O139    O    0.84803   0.13100   0.02412   1.000
    O140    O    0.15416   0.36400   0.01978   1.000
    O141    O    0.84758   0.24852   0.97019   1.000
    O142    O    0.16785   0.25237   0.96797   1.000
    N143    N    0.53616   0.74515   0.77808   1.000
    O144    O    0.50034   0.89590   0.77622   1.000
    O145    O    0.38447   0.78315   0.72309   1.000
    O146    O    0.47552   0.52541   0.81039   1.000
    O147    O    0.66971   0.72124   0.72866   1.000
    N148    N    0.49526   0.25330   0.52637   1.000
    O149    O    0.65190   0.36900   0.52410   1.000
    O150    O    0.34580   0.13599   0.51976   1.000
    O151    O    0.33209   0.24763   0.46796   1.000
    O152    O    0.65234   0.25148   0.47016   1.000
    N153    N    0.50469   0.74668   0.47362   1.000
    O154    O    0.66786   0.75235   0.53202   1.000
    O155    O    0.34804   0.63099   0.47588   1.000
    O156    O    0.65415   0.86399   0.48023   1.000
    O157    O    0.34761   0.74850   0.52982   1.000
    N158    N    0.96072   0.72508   0.27545   1.000
    O159    O    0.99806   0.58919   0.27485   1.000
    O160    O    0.82870   0.76385   0.22734   1.000
    O161    O    0.11396   0.70194   0.22176   1.000
    O162    O    0.94293   0.87463   0.28320   1.000
    N163    N    0.46090   0.22509   0.22451   1.000
    O164    O    0.61404   0.20196   0.27820   1.000
    O165    O    0.49816   0.08921   0.22508   1.000
    O166    O    0.44303   0.37464   0.21674   1.000
    O167    O    0.32879   0.26387   0.27263   1.000
    N168    N    0.99528   0.75328   0.97326   1.000
    O169    O    0.15237   0.75146   0.02961   1.000
    O170    O    0.15192   0.86898   0.97570   1.000
    O171    O    0.84579   0.63599   0.98003   1.000
    O172    O    0.83210   0.74762   0.03182   1.000
    N173    N    0.60181   0.37810   0.70000   1.000
loop_
    _geom_bond_atom_site_label_1
    _geom_bond_atom_site_label_2
    _geom_bond_distance
    _geom_bond_site_symmetry_2
    _ccdc_geom_bond_type
    Zr58   O65       0.62253  1_554   S
    Zr28   O65       0.62253      .   S
    Zr62   O66       0.63449  1_554   S
    Zr27   O66       0.63449      .   S
    Zr15   O67       0.51954      .   S
    Zr64   O67       0.51954      .   S
    Zr20   O68       0.63771      .   S
    Zr41   O68       0.63771      .   S
    Zr20   O69       0.63474      .   S
    Zr45   O69       0.63474  1_556   S
    Zr14   O70       0.51445      .   S
    Zr64   O70       0.51445      .   S
    Zr21   O71       0.63650      .   S
    Zr40   O71       0.63650      .   S
    Zr21   O72       0.63616      .   S
    Zr42   O72       0.63616  1_556   S
    Zr41   O73       1.17625      .   S
    Zr6    O73       1.17625      .   S
    Zr40   O74       1.19170      .   S
    Zr7    O74       1.19170      .   S
    Zr6    O75       1.15381      .   S
    Zr60   O75       1.15381      .   S
    Zr6    O76       1.21019      .   S
    Zr59   O76       1.21019      .   S
    Zr7    O77       1.16709      .   S
    Zr63   O77       1.16709      .   S
    Zr7    O78       1.19936      .   S
    Zr61   O78       1.19936      .   S
    Zr63   O79       0.63716      .   S
    Zr30   O79       0.63716      .   S
    Zr60   O80       0.63714      .   S
    Zr29   O80       0.63714      .   S
    Zr30   O81       0.63385      .   S
    Zr59   O81       0.63385      .   S
    Zr29   O82       0.63317      .   S
    Zr61   O82       0.63317      .   S
    Zr36   O83       0.63316      .   S
    Zr18   O83       0.63316      .   S
    Zr36   O84       1.19925      .   S
    Zr1    O84       1.19925      .   S
    Zr34   O85       0.63384      .   S
    Zr19   O85       0.63384      .   S
    Zr34   O86       1.21004      .   S
    Zr0    O86       1.21004      .   S
    Zr18   O87       0.63733  1_455   S
    Zr35   O87       0.63733      .   S
    Zr19   O88       0.63733      .   S
    Zr38   O88       0.63733  1_455   S
    Zr35   O89       1.15381      .   S
    Zr0    O89       1.15381      .   S
    Zr38   O90       1.16710      .   S
    Zr1    O90       1.16710      .   S
    Zr1    O91       1.19177      .   S
    Zr47   O91       1.19177      .   S
    Zr0    O92       1.17636      .   S
    Zr48   O92       1.17636      .   S
    Zr47   O93       0.63645      .   S
    Zr24   O93       0.63645      .   S
    Zr48   O94       0.63772      .   S
    Zr23   O94       0.63772      .   S
    Zr39   O95       0.53329      .   S
    Zr8    O95       0.53329  1_455   S
    Zr39   O96       0.51953      .   S
    Zr9    O96       0.51953      .   S
    Zr24   O97       0.63622      .   S
    Zr49   O97       0.63622      .   S
    Zr23   O98       0.63471      .   S
    Zr53   O98       0.63471      .   S
    Zr37   O99       0.63469      .   S
    Zr16   O99       0.63469      .   S
    Zr33   O100      0.63618      .   S
    Zr17   O100      0.63618      .   S
    Zr13   O101      0.51953      .   S
    Zr55   O101      0.51953      .   S
    Zr16   O102      0.63772      .   S
    Zr32   O102      0.63772      .   S
    Zr12   O103      0.51444      .   S
    Zr55   O103      0.51444  1_455   S
    Zr17   O104      0.63646      .   S
    Zr31   O104      0.63646      .   S
    Zr32   O105      1.17630      .   S
    Zr4    O105      1.17630      .   S
    Zr31   O106      1.19176      .   S
    Zr5    O106      1.19176      .   S
    Zr4    O107      1.15361      .   S
    Zr51   O107      1.15361      .   S
    Zr4    O108      1.21011      .   S
    Zr50   O108      1.21011      .   S
    Zr5    O109      1.16712      .   S
    Zr54   O109      1.16712      .   S
    Zr5    O110      1.19924      .   S
    Zr52   O110      1.19924      .   S
    Zr54   O111      0.63731  1_655   S
    Zr26   O111      0.63731      .   S
    Zr51   O112      0.63754      .   S
    Zr25   O112      0.63754  1_655   S
    Zr26   O113      0.63384      .   S
    Zr50   O113      0.63384      .   S
    Zr25   O114      0.63316      .   S
    Zr52   O114      0.63316      .   S
    Zr44   O115      0.63317      .   S
    Zr22   O115      0.63317      .   S
    Zr44   O116      1.19935      .   S
    Zr3    O116      1.19935      .   S
    Zr22   O117      0.63712      .   S
    Zr43   O117      0.63712      .   S
    Zr43   O118      1.15382      .   S
    Zr2    O118      1.15382      .   S
    Zr3    O119      1.19173      .   S
    Zr56   O119      1.19173      .   S
    Zr2    O120      1.17627      .   S
    Zr57   O120      1.17627      .   S
    Zr56   O121      0.63647      .   S
    Zr28   O121      0.63647      .   S
    Zr57   O122      0.63758      .   S
    Zr27   O122      0.63758      .   S
    Zr46   O123      0.51440      .   S
    Zr10   O123      0.51440      .   S
    Zr46   O124      0.51950      .   S
    Zr11   O124      0.51950      .   S
    Zr39   O125      1.17307      .   S
    Zr0    O125      1.17307      .   S
    Zr39   O126      1.16473  1_655   S
    Zr1    O126      1.16473      .   S
    Zr46   O127      1.17297      .   S
    Zr2    O127      1.17297      .   S
    Zr46   O128      1.16453      .   S
    Zr3    O128      1.16453      .   S
    Zr55   O129      1.17300      .   S
    Zr4    O129      1.17300      .   S
    Zr55   O130      1.16471  1_455   S
    Zr5    O130      1.16471      .   S
    Zr64   O131      1.17294      .   S
    Zr6    O131      1.17294      .   S
    Zr64   O132      1.16450      .   S
    Zr7    O132      1.16450      .   S
    N133   O134      2.59213  1_455   S
    Zr2    O134      3.64726      .   S
    N133   O135      2.41010      .   S
    Zr25   O135      3.05191  1_655   S
    N133   O136      2.41327      .   S
    Zr3    O136      3.40996      .   S
    N133   O137      2.46121      .   S
    Zr26   O137      3.12857  1_565   S
    N138   O139      2.19650  1_455   S
    Zr21   O139      2.81295  1_565   S
    N138   O140      2.13911      .   S
    Zr20   O140      2.74041      .   S
    N138   O141      2.50375  1_454   S
    Zr2    O141      3.57888      .   S
    N138   O142      2.55353  1_554   S
    Zr3    O142      3.64563      .   S
    N143   O144      2.62480      .   S
    Zr22   O144      3.27115  1_545   S
    N143   O145      2.70880      .   S
    Zr4    O145      3.72891      .   S
    N143   O146      3.17715      .   S
    Zr3    O146      4.30459      .   S
    N143   O147      2.30728      .   S
    Zr5    O147      3.34630      .   S
    N148   O149      2.19650      .   S
    Zr17   O149      2.81286      .   S
    N148   O150      2.13898      .   S
    Zr16   O150      2.74045  1_565   S
    N148   O151      2.55349      .   S
    Zr1    O151      3.64560      .   S
    N148   O152      2.50362      .   S
    Zr0    O152      3.57893      .   S
    N153   O154      2.55350      .   S
    Zr5    O154      3.64561      .   S
    N153   O155      2.19651      .   S
    Zr24   O155      2.81287      .   S
    N153   O156      2.13898      .   S
    Zr23   O156      2.74045  1_545   S
    N153   O157      2.50360      .   S
    Zr4    O157      3.57882      .   S
    N158   O159      2.41094      .   S
    Zr18   O159      3.05260  1_455   S
    N158   O160      2.41198      .   S
    Zr7    O160      3.40874      .   S
    N158   O161      2.59333  1_655   S
    Zr6    O161      3.64839      .   S
    N158   O162      2.46048      .   S
    Zr19   O162      3.12799  1_545   S
    N163   O164      2.59191      .   S
    Zr0    O164      3.64695      .   S
    N163   O165      2.41013      .   S
    Zr29   O165      3.05219  1_565   S
    N163   O166      2.46099      .   S
    Zr30   O166      3.12805      .   S
    N163   O167      2.41320      .   S
    Zr1    O167      3.40993      .   S
    N168   O169      2.50486  1_656   S
    Zr6    O169      3.58049      .   S
    N168   O170      2.19655  1_655   S
    Zr28   O170      2.81287  1_545   S
    N168   O171      2.13928      .   S
    Zr27   O171      2.74043      .   S
    N168   O172      2.55461  1_556   S
    Zr7    O172      3.64724      .   S
