# CIF file generated by openbabel 2.4.90, see http://openbabel.sf.net
data_I
_chemical_name_common ''
_cell_length_a 14.648
_cell_length_b 15.577
_cell_length_c 17.021
_cell_angle_alpha 89.998
_cell_angle_beta 89.997
_cell_angle_gamma 116.496
_space_group_name_H-M_alt 'P 1'
_space_group_name_Hall 'P 1'
loop_
    _symmetry_equiv_pos_as_xyz
    x,y,z
loop_
    _atom_site_label
    _atom_site_type_symbol
    _atom_site_fract_x
    _atom_site_fract_y
    _atom_site_fract_z
    _atom_site_occupancy
    C0      C    0.84422   0.21189   0.36870   1.000
    C1      C    0.12706   0.27316   0.36542   1.000
    C2      C    0.65569   0.28811   0.86876   1.000
    C3      C    0.37288   0.22683   0.86542   1.000
    C4      C    0.15573   0.78809   0.63127   1.000
    C5      C    0.87288   0.72682   0.63457   1.000
    C6      C    0.34425   0.71187   0.13124   1.000
    C7      C    0.62707   0.77315   0.13457   1.000
    C8      C    0.32770   0.34497   0.48200   1.000
    C9      C    0.44061   0.20129   0.65783   1.000
    C10     C    0.54518   0.31834   0.65623   1.000
    C11     C    0.35161   0.09680   0.57592   1.000
    C12     C    0.64757   0.15866   0.48486   1.000
    C13     C    0.65181   0.41697   0.58326   1.000
    C14     C    0.89783   0.42183   0.44354   1.000
    C15     C    0.93160   0.52145   0.31440   1.000
    C16     C    0.85053   0.63523   0.29067   1.000
    C17     C    0.91855   0.63412   0.37983   1.000
    C18     C    0.99398   0.93889   0.36901   1.000
    C19     C    0.78969   0.97085   0.20032   1.000
    C20     C    0.74904   0.69740   0.25686   1.000
    C21     C    0.17716   0.77355   0.21178   1.000
    C22     C    0.19202   0.51315   0.20573   1.000
    C23     C    0.09875   0.07200   0.43440   1.000
    C24     C    0.00000   0.31108   0.47688   1.000
    C25     C    0.96388   0.18693   0.48197   1.000
    C26     C    0.17222   0.15502   0.98200   1.000
    C27     C    0.05932   0.29870   0.15782   1.000
    C28     C    0.95472   0.18166   0.15624   1.000
    C29     C    0.14835   0.40320   0.07590   1.000
    C30     C    0.85232   0.34136   0.98489   1.000
    C31     C    0.84813   0.08304   0.08325   1.000
    C32     C    0.60209   0.07818   0.94357   1.000
    C33     C    0.56829   0.97849   0.81448   1.000
    C34     C    0.64941   0.86473   0.79068   1.000
    C35     C    0.58138   0.86583   0.87984   1.000
    C36     C    0.50597   0.56106   0.86905   1.000
    C37     C    0.71025   0.52912   0.70032   1.000
    C38     C    0.75090   0.80257   0.75687   1.000
    C39     C    0.32282   0.72642   0.71179   1.000
    C40     C    0.30796   0.98682   0.70575   1.000
    C41     C    0.40123   0.42799   0.93450   1.000
    C42     C    0.48139   0.18894   0.97689   1.000
    C43     C    0.53599   0.31309   0.98198   1.000
    C44     C    0.67225   0.65501   0.51799   1.000
    C45     C    0.55934   0.79869   0.34217   1.000
    C46     C    0.45477   0.68165   0.34376   1.000
    C47     C    0.64834   0.90318   0.42400   1.000
    C48     C    0.35237   0.84133   0.51513   1.000
    C49     C    0.34814   0.58301   0.41673   1.000
    C50     C    0.10211   0.57815   0.55645   1.000
    C51     C    0.06834   0.47853   0.68558   1.000
    C52     C    0.14942   0.36475   0.70933   1.000
    C53     C    0.08140   0.36586   0.62010   1.000
    C54     C    0.00597   0.06108   0.63090   1.000
    C55     C    0.21026   0.02913   0.79968   1.000
    C56     C    0.25090   0.30258   0.74314   1.000
    C57     C    0.82279   0.22643   0.78822   1.000
    C58     C    0.80793   0.48683   0.79426   1.000
    C59     C    0.90121   0.92799   0.56551   1.000
    C60     C    0.98144   0.68890   0.52311   1.000
    C61     C    0.03606   0.81306   0.51802   1.000
    C62     C    0.82773   0.84497   0.01000   1.000
    C63     C    0.94063   0.70128   0.84217   1.000
    C64     C    0.04524   0.81832   0.84375   1.000
    C65     C    0.85159   0.59679   0.92400   1.000
    C66     C    0.14763   0.65862   0.01510   1.000
    C67     C    0.15182   0.91694   0.91674   1.000
    C68     C    0.39785   0.92180   0.05640   1.000
    C69     C    0.43166   0.02149   0.18552   1.000
    C70     C    0.35053   0.13525   0.20932   1.000
    C71     C    0.41856   0.13414   0.12015   1.000
    C72     C    0.49398   0.43891   0.13094   1.000
    C73     C    0.28969   0.47085   0.29967   1.000
    C74     C    0.24904   0.19741   0.24312   1.000
    C75     C    0.67713   0.27356   0.28819   1.000
    C76     C    0.69198   0.01316   0.29425   1.000
    C77     C    0.59872   0.57200   0.06550   1.000
    C78     C    0.51856   0.81105   0.02310   1.000
    C79     C    0.46395   0.68690   0.01801   1.000
    C80     C    0.29897   0.26774   0.48968   1.000
    C81     C    0.35229   0.23043   0.53565   1.000
    C82     C    0.49305   0.25879   0.61974   1.000
    C83     C    0.31307   0.13109   0.54326   1.000
    C84     C    0.22013   0.07250   0.50747   1.000
    C85     C    0.17255   0.96486   0.51884   1.000
    C86     C    0.68393   0.23611   0.49403   1.000
    C87     C    0.63677   0.27888   0.54082   1.000
    C88     C    0.68502   0.37828   0.55004   1.000
    C89     C    0.78056   0.43104   0.51555   1.000
    C90     C    0.83654   0.53834   0.52813   1.000
    C91     C    0.82330   0.38312   0.47072   1.000
    C92     C    0.01436   0.40089   0.28553   1.000
    C93     C    0.05644   0.50572   0.26299   1.000
    C94     C    0.00000   0.55863   0.28420   1.000
    C95     C    0.04814   0.65664   0.26690   1.000
    C96     C    0.91388   0.67771   0.33070   1.000
    C97     C    0.87637   0.81159   0.31796   1.000
    C98     C    0.93029   0.91068   0.32786   1.000
    C99     C    0.89935   0.97018   0.28580   1.000
    C100    C    0.81663   0.92764   0.23441   1.000
    C101    C    0.79444   0.77433   0.26561   1.000
    C102    C    0.95093   0.07819   0.29612   1.000
    C103    C    0.14152   0.69742   0.22650   1.000
    C104    C    0.14923   0.55169   0.22342   1.000
    C105    C    0.17102   0.11497   0.46335   1.000
    C106    C    0.20096   0.23225   0.98967   1.000
    C107    C    0.14765   0.26956   0.03565   1.000
    C108    C    0.00688   0.24121   0.11974   1.000
    C109    C    0.18687   0.36891   0.04320   1.000
    C110    C    0.27985   0.42749   0.00749   1.000
    C111    C    0.32745   0.53509   0.01887   1.000
    C112    C    0.81597   0.26391   0.99405   1.000
    C113    C    0.86314   0.22114   0.04084   1.000
    C114    C    0.81492   0.12173   0.05003   1.000
    C115    C    0.71937   0.06897   0.01558   1.000
    C116    C    0.66340   0.96163   0.02814   1.000
    C117    C    0.67663   0.11689   0.97074   1.000
    C118    C    0.48556   0.09907   0.78565   1.000
    C119    C    0.44349   0.99422   0.76306   1.000
    C120    C    0.49566   0.94132   0.78420   1.000
    C121    C    0.45182   0.84332   0.76698   1.000
    C122    C    0.58606   0.82224   0.83077   1.000
    C123    C    0.62358   0.68837   0.81790   1.000
    C124    C    0.56965   0.58928   0.82789   1.000
    C125    C    0.60060   0.52979   0.78583   1.000
    C126    C    0.68331   0.57232   0.73442   1.000
    C127    C    0.70550   0.72564   0.76562   1.000
    C128    C    0.54900   0.42181   0.79613   1.000
    C129    C    0.35845   0.80254   0.72652   1.000
    C130    C    0.35076   0.94828   0.72343   1.000
    C131    C    0.32892   0.38502   0.96330   1.000
    C132    C    0.70098   0.73224   0.51032   1.000
    C133    C    0.64766   0.76955   0.46435   1.000
    C134    C    0.50690   0.74119   0.38026   1.000
    C135    C    0.68688   0.86889   0.45673   1.000
    C136    C    0.77982   0.92749   0.49252   1.000
    C137    C    0.82740   0.03512   0.48115   1.000
    C138    C    0.31601   0.76387   0.50597   1.000
    C139    C    0.36317   0.72110   0.45917   1.000
    C140    C    0.31492   0.62171   0.44996   1.000
    C141    C    0.21939   0.56894   0.48444   1.000
    C142    C    0.16340   0.46164   0.47186   1.000
    C143    C    0.17664   0.61686   0.52927   1.000
    C144    C    0.98559   0.59909   0.71445   1.000
    C145    C    0.94350   0.49426   0.73700   1.000
    C146    C    0.99568   0.44135   0.71579   1.000
    C147    C    0.95180   0.34334   0.73305   1.000
    C148    C    0.08607   0.32226   0.66924   1.000
    C149    C    0.12358   0.18839   0.68203   1.000
    C150    C    0.06965   0.08930   0.67210   1.000
    C151    C    0.10060   0.02980   0.71419   1.000
    C152    C    0.18331   0.07233   0.76559   1.000
    C153    C    0.20550   0.22565   0.73439   1.000
    C154    C    0.04902   0.92179   0.70387   1.000
    C155    C    0.85842   0.30256   0.77349   1.000
    C156    C    0.85072   0.44829   0.77650   1.000
    C157    C    0.82893   0.88502   0.53664   1.000
    C158    C    0.79899   0.76773   0.01032   1.000
    C159    C    0.85230   0.73042   0.96434   1.000
    C160    C    0.99307   0.75877   0.88025   1.000
    C161    C    0.81308   0.63107   0.95675   1.000
    C162    C    0.72010   0.57249   0.99250   1.000
    C163    C    0.67250   0.46490   0.98110   1.000
    C164    C    0.18397   0.73608   0.00594   1.000
    C165    C    0.13681   0.77884   0.95915   1.000
    C166    C    0.18503   0.87825   0.94997   1.000
    C167    C    0.28058   0.93101   0.98442   1.000
    C168    C    0.33655   0.03835   0.97185   1.000
    C169    C    0.32332   0.88310   0.02926   1.000
    C170    C    0.51438   0.90090   0.21436   1.000
    C171    C    0.55645   0.00576   0.23694   1.000
    C172    C    0.50429   0.05866   0.21575   1.000
    C173    C    0.54813   0.15666   0.23301   1.000
    C174    C    0.41388   0.17774   0.16922   1.000
    C175    C    0.37637   0.31160   0.18200   1.000
    C176    C    0.43029   0.41069   0.17210   1.000
    C177    C    0.39935   0.47019   0.21410   1.000
    C178    C    0.31664   0.42766   0.26557   1.000
    C179    C    0.29444   0.27434   0.23436   1.000
    C180    C    0.45095   0.57817   0.20386   1.000
    C181    C    0.64149   0.19744   0.27347   1.000
    C182    C    0.64919   0.05170   0.27657   1.000
    C183    C    0.67103   0.61496   0.03666   1.000
    C184    C    0.77462   0.28744   0.45921   1.000
    C185    C    0.76628   0.83211   0.22389   1.000
    C186    C    0.21079   0.21076   0.45370   1.000
    C187    C    0.19016   0.64574   0.20489   1.000
    C188    C    0.72528   0.21257   0.95925   1.000
    C189    C    0.73366   0.66786   0.72390   1.000
    C190    C    0.28916   0.28923   0.95372   1.000
    C191    C    0.30982   0.85423   0.70492   1.000
    C192    C    0.22533   0.71254   0.54078   1.000
    C193    C    0.23366   0.16786   0.77611   1.000
    C194    C    0.78916   0.78922   0.54629   1.000
    C195    C    0.80979   0.35424   0.79510   1.000
    C196    C    0.27466   0.78741   0.04070   1.000
    C197    C    0.26628   0.33212   0.27609   1.000
    C198    C    0.71079   0.71076   0.04620   1.000
    C199    C    0.69013   0.14575   0.29507   1.000
    C200    C    0.79149   0.57523   0.57034   1.000
    C201    C    0.44061   0.29628   0.57048   1.000
    C202    C    0.22305   0.93351   0.56114   1.000
    C203    C    0.54574   0.21758   0.57474   1.000
    C204    C    0.92379   0.58226   0.49607   1.000
    C205    C    0.89813   0.12189   0.27999   1.000
    C206    C    0.92316   0.36174   0.31149   1.000
    C207    C    0.00778   0.71757   0.28634   1.000
    C208    C    0.90347   0.75445   0.36528   1.000
    C209    C    0.07376   0.36233   0.27737   1.000
    C210    C    0.08623   0.91593   0.48712   1.000
    C211    C    0.04308   0.11548   0.31998   1.000
    C212    C    0.98897   0.24737   0.44638   1.000
    C213    C    0.70847   0.92474   0.07034   1.000
    C214    C    0.05931   0.20372   0.07047   1.000
    C215    C    0.27692   0.56646   0.06114   1.000
    C216    C    0.95417   0.28243   0.07475   1.000
    C217    C    0.57617   0.91770   0.99606   1.000
    C218    C    0.60181   0.37810   0.70000   1.000
    C219    C    0.57667   0.13818   0.81172   1.000
    C220    C    0.49219   0.78239   0.78636   1.000
    C221    C    0.59646   0.74550   0.86531   1.000
    C222    C    0.42621   0.13767   0.77736   1.000
    C223    C    0.41374   0.58403   0.98710   1.000
    C224    C    0.45688   0.38452   0.81998   1.000
    C225    C    0.51091   0.25266   0.94640   1.000
    C226    C    0.20846   0.42475   0.42965   1.000
    C227    C    0.55934   0.70370   0.42952   1.000
    C228    C    0.77690   0.06647   0.43884   1.000
    C229    C    0.45421   0.78240   0.42526   1.000
    C230    C    0.07615   0.41772   0.50393   1.000
    C231    C    0.10183   0.87809   0.72000   1.000
    C232    C    0.07678   0.63823   0.68840   1.000
    C233    C    0.99217   0.28241   0.71366   1.000
    C234    C    0.09647   0.24552   0.63470   1.000
    C235    C    0.92618   0.63765   0.72262   1.000
    C236    C    0.91371   0.08406   0.51288   1.000
    C237    C    0.95687   0.88450   0.68002   1.000
    C238    C    0.01097   0.75262   0.55361   1.000
    C239    C    0.29147   0.07524   0.92966   1.000
    C240    C    0.94063   0.79627   0.92951   1.000
    C241    C    0.72303   0.43352   0.93887   1.000
    C242    C    0.04578   0.71755   0.92524   1.000
    C243    C    0.42377   0.08228   0.00000   1.000
    C244    C    0.39815   0.62188   0.22000   1.000
    C245    C    0.42326   0.86179   0.18831   1.000
    C246    C    0.50776   0.21759   0.21363   1.000
    C247    C    0.40348   0.25447   0.13468   1.000
    C248    C    0.57374   0.86231   0.22263   1.000
    C249    C    0.58620   0.41596   0.01280   1.000
    C250    C    0.54307   0.61546   0.18000   1.000
    C251    C    0.48903   0.74733   0.05360   1.000
    O252    O    0.38016   0.06031   0.98592   1.000
    O253    O    0.16580   0.69735   0.01052   1.000
    O254    O    0.22932   0.76174   0.02332   1.000
    O255    O    0.16039   0.75746   0.98254   1.000
    O256    O    0.30365   0.48129   0.01318   1.000
    O257    O    0.23336   0.39820   0.02534   1.000
    O258    O    0.30438   0.40626   0.98539   1.000
    O259    O    0.81336   0.80635   0.01016   1.000
    O260    O    0.75489   0.73924   0.02826   1.000
    O261    O    0.82564   0.74907   0.98733   1.000
    O262    O    0.62935   0.44043   0.99695   1.000
    O263    O    0.69139   0.01530   0.02186   1.000
    O264    O    0.76715   0.09535   0.03280   1.000
    O265    O    0.69800   0.09293   0.99316   1.000
    O266    O    0.47649   0.71711   0.03580   1.000
    O267    O    0.30218   0.55077   0.04000   1.000
    O268    O    0.37060   0.55956   0.00298   1.000
    O269    O    0.50379   0.77919   0.03835   1.000
    O270    O    0.68593   0.94319   0.04924   1.000
    O271    O    0.61979   0.93967   0.01210   1.000
    O272    O    0.29899   0.83525   0.03498   1.000
    O273    O    0.36059   0.90245   0.04283   1.000
    O274    O    0.30195   0.90706   0.00684   1.000
    O275    O    0.16726   0.31924   0.03943   1.000
    O276    O    0.10348   0.23664   0.05306   1.000
    O277    O    0.17430   0.25091   0.01266   1.000
    O278    O    0.69091   0.66286   0.04143   1.000
    O279    O    0.63488   0.59348   0.05108   1.000
    O280    O    0.69557   0.59373   0.01458   1.000
    O281    O    0.30946   0.74964   0.08597   1.000
    O282    O    0.83903   0.17144   0.04543   1.000
    O283    O    0.90865   0.25179   0.05779   1.000
    O284    O    0.83955   0.24252   0.01744   1.000
    O285    O    0.16761   0.38605   0.05955   1.000
    O286    O    0.66893   0.74195   0.09038   1.000
    O287    O    0.83153   0.10239   0.06664   1.000
    O288    O    0.31059   0.63916   0.09619   1.000
    O289    O    0.66777   0.84895   0.10245   1.000
    O290    O    0.03310   0.22246   0.09511   1.000
    O291    O    0.98052   0.26182   0.09724   1.000
    O292    O    0.98080   0.21144   0.13799   1.000
    O293    O    0.03310   0.26996   0.13878   1.000
    O294    O    0.41622   0.15594   0.14469   1.000
    O295    O    0.46213   0.42480   0.15152   1.000
    O296    O    0.38376   0.78683   0.15977   1.000
    O297    O    0.26721   0.67881   0.16806   1.000
    O298    O    0.37120   0.66687   0.17562   1.000
    O299    O    0.58507   0.69430   0.15728   1.000
    O300    O    0.60040   0.81773   0.17860   1.000
    O301    O    0.69667   0.80263   0.17923   1.000
    O302    O    0.40868   0.21611   0.15195   1.000
    O303    O    0.38992   0.28304   0.15834   1.000
    O304    O    0.38221   0.15649   0.18927   1.000
    O305    O    0.46082   0.19766   0.19142   1.000
    O306    O    0.40333   0.36115   0.17705   1.000
    O307    O    0.41482   0.44044   0.19310   1.000
    O308    O    0.49701   0.59681   0.19193   1.000
    O309    O    0.33540   0.29297   0.20818   1.000
    O310    O    0.46797   0.04008   0.20063   1.000
    O311    O    0.46882   0.88135   0.20133   1.000
    O312    O    0.80316   0.94925   0.21736   1.000
    O313    O    0.42515   0.52418   0.20898   1.000
    O314    O    0.42455   0.60002   0.21193   1.000
    O315    O    0.16969   0.59872   0.21415   1.000
    O316    O    0.16584   0.67158   0.21569   1.000
    O317    O    0.17062   0.53242   0.21457   1.000
    O318    O    0.15934   0.73549   0.21914   1.000
    O319    O    0.52794   0.18713   0.22332   1.000
    O320    O    0.35800   0.44892   0.23983   1.000
    O321    O    0.54406   0.88161   0.21849   1.000
    O322    O    0.53542   0.95333   0.22565   1.000
    O323    O    0.52621   0.10766   0.22438   1.000
    O324    O    0.53037   0.03221   0.22634   1.000
    O325    O    0.10283   0.52871   0.24321   1.000
    O326    O    0.79146   0.87988   0.22915   1.000
    O327    O    0.78036   0.80322   0.24475   1.000
    O328    O    0.09483   0.67703   0.24670   1.000
    O329    O    0.59481   0.17705   0.25324   1.000
    O330    O    0.27174   0.23587   0.23874   1.000
    O331    O    0.28036   0.30323   0.25522   1.000
    O332    O    0.85799   0.94891   0.26010   1.000
    O333    O    0.60282   0.02873   0.25676   1.000
    O334    O    0.77174   0.73586   0.26123   1.000
    O335    O    0.02822   0.53218   0.27360   1.000
    O336    O    0.03540   0.45330   0.27426   1.000
    O337    O    0.29146   0.37989   0.27083   1.000
    O338    O    0.30317   0.44925   0.28262   1.000
    O339    O    0.83541   0.79296   0.29178   1.000
    O340    O    0.02407   0.60763   0.27555   1.000
    O341    O    0.02796   0.68710   0.27662   1.000
    O342    O    0.65931   0.23550   0.28083   1.000
    O343    O    0.66581   0.17160   0.28427   1.000
    O344    O    0.19667   0.30264   0.32075   1.000
    O345    O    0.67059   0.03243   0.28541   1.000
    O346    O    0.66966   0.09873   0.28582   1.000
    O347    O    0.04406   0.38161   0.28145   1.000
    O348    O    0.10041   0.31774   0.32139   1.000
    O349    O    0.92453   0.10004   0.28805   1.000
    O350    O    0.87117   0.16689   0.32434   1.000
    O351    O    0.96580   0.54004   0.29930   1.000
    O352    O    0.96876   0.38131   0.29851   1.000
    O353    O    0.92514   0.02418   0.29096   1.000
    O354    O    0.91482   0.94043   0.30683   1.000
    O355    O    0.96083   0.69764   0.30852   1.000
    O356    O    0.88220   0.65647   0.31068   1.000
    O357    O    0.76717   0.17882   0.33188   1.000
    O358    O    0.99701   0.09683   0.30805   1.000
    O359    O    0.88369   0.28681   0.34009   1.000
    O360    O    0.90333   0.86114   0.32291   1.000
    O361    O    0.88992   0.78302   0.34162   1.000
    O362    O    0.08507   0.19432   0.34270   1.000
    O363    O    0.96214   0.92479   0.34843   1.000
    O364    O    0.90868   0.71608   0.34799   1.000
    O365    O    0.91621   0.65592   0.35526   1.000
    O366    O    0.53312   0.76994   0.36121   1.000
    O367    O    0.48083   0.71142   0.36201   1.000
    O368    O    0.16776   0.34895   0.39753   1.000
    O369    O    0.16893   0.24196   0.40956   1.000
    O370    O    0.81056   0.13918   0.40377   1.000
    O371    O    0.80942   0.24967   0.41395   1.000
    O372    O    0.48055   0.76180   0.40276   1.000
    O373    O    0.53312   0.72245   0.40489   1.000
    O374    O    0.33153   0.60236   0.43334   1.000
    O375    O    0.66761   0.88604   0.44036   1.000
    O376    O    0.40869   0.75175   0.44222   1.000
    O377    O    0.60350   0.73662   0.44693   1.000
    O378    O    0.18593   0.44320   0.45075   1.000
    O379    O    0.13489   0.09348   0.44887   1.000
    O380    O    0.80215   0.05079   0.45999   1.000
    O381    O    0.86057   0.40247   0.45713   1.000
    O382    O    0.99449   0.27923   0.46163   1.000
    O383    O    0.97643   0.21715   0.46417   1.000
    O384    O    0.33905   0.67141   0.45457   1.000
    O385    O    0.26716   0.59532   0.46720   1.000
    O386    O    0.19091   0.16286   0.45852   1.000
    O387    O    0.25488   0.23925   0.47169   1.000
    O388    O    0.66727   0.81922   0.46054   1.000
    O389    O    0.73335   0.89819   0.47463   1.000
    O390    O    0.33959   0.74249   0.48257   1.000
    O391    O    0.79896   0.33528   0.46496   1.000
    O392    O    0.72928   0.26177   0.47662   1.000
    O393    O    0.19557   0.09373   0.48541   1.000
    O394    O    0.67432   0.75090   0.48734   1.000
    O395    O    0.80193   0.40708   0.49313   1.000
    O396    O    0.19140   0.51529   0.47815   1.000
    O397    O    0.11978   0.43968   0.48789   1.000
    O398    O    0.80361   0.98130   0.48683   1.000
    O399    O    0.87056   0.05959   0.49701   1.000
    O400    O    0.31333   0.30636   0.48584   1.000
    O401    O    0.19802   0.59290   0.50686   1.000
    O402    O    0.66575   0.19738   0.48944   1.000
    O403    O    0.12939   0.94040   0.50298   1.000
    O404    O    0.32563   0.24909   0.51266   1.000
    O405    O    0.80438   0.90625   0.51458   1.000
    O406    O    0.66035   0.25749   0.51742   1.000
    O407    O    0.88017   0.56030   0.51210   1.000
    O408    O    0.33419   0.80260   0.51055   1.000
    O409    O    0.27067   0.73821   0.52337   1.000
    O410    O    0.19634   0.01868   0.51315   1.000
    O411    O    0.26660   0.10179   0.52536   1.000
    O412    O    0.68662   0.69363   0.51416   1.000
    O413    O    0.74507   0.76073   0.52830   1.000
    O414    O    0.80855   0.48469   0.52184   1.000
    O415    O    0.73279   0.40466   0.53279   1.000
    O416    O    0.02352   0.78284   0.53582   1.000
    O417    O    0.19780   0.94919   0.53999   1.000
    O418    O    0.99621   0.72076   0.53836   1.000
    O419    O    0.81401   0.55678   0.54923   1.000
    O420    O    0.20098   0.66470   0.53503   1.000
    O421    O    0.13938   0.59751   0.54286   1.000
    O422    O    0.33268   0.18076   0.53946   1.000
    O423    O    0.39645   0.26336   0.55306   1.000
    O424    O    0.80904   0.83712   0.54146   1.000
    O425    O    0.86507   0.90650   0.55107   1.000
    O426    O    0.19053   0.75032   0.58602   1.000
    O427    O    0.66090   0.32858   0.54543   1.000
    O428    O    0.59126   0.24823   0.55778   1.000
    O429    O    0.33234   0.11395   0.55959   1.000
    O430    O    0.83102   0.75802   0.59043   1.000
    O431    O    0.66842   0.39762   0.56665   1.000
    O432    O    0.18939   0.86080   0.59620   1.000
    O433    O    0.83219   0.65103   0.60245   1.000
    O434    O    0.46683   0.27754   0.59511   1.000
    O435    O    0.51940   0.23819   0.59724   1.000
    O436    O    0.51912   0.28856   0.63798   1.000
    O437    O    0.46683   0.23004   0.63878   1.000
    O438    O    0.08373   0.34406   0.64467   1.000
    O439    O    0.03781   0.07519   0.65150   1.000
    O440    O    0.11625   0.71316   0.65983   1.000
    O441    O    0.23278   0.82116   0.66809   1.000
    O442    O    0.12878   0.83309   0.67563   1.000
    O443    O    0.91488   0.80566   0.65729   1.000
    O444    O    0.89953   0.68224   0.67860   1.000
    O445    O    0.80327   0.69734   0.67923   1.000
    O446    O    0.09127   0.28389   0.65197   1.000
    O447    O    0.11002   0.21695   0.65836   1.000
    O448    O    0.11774   0.34351   0.68928   1.000
    O449    O    0.03912   0.30234   0.69145   1.000
    O450    O    0.09661   0.13884   0.67707   1.000
    O451    O    0.08513   0.05955   0.69315   1.000
    O452    O    0.00294   0.90315   0.69194   1.000
    O453    O    0.16454   0.20702   0.70821   1.000
    O454    O    0.03201   0.45994   0.70068   1.000
    O455    O    0.03118   0.61866   0.70142   1.000
    O456    O    0.69678   0.55072   0.71737   1.000
    O457    O    0.07481   0.97580   0.70903   1.000
    O458    O    0.07542   0.89994   0.71193   1.000
    O459    O    0.33029   0.90125   0.71417   1.000
    O460    O    0.33414   0.82838   0.71572   1.000
    O461    O    0.32936   0.96755   0.71459   1.000
    O462    O    0.34064   0.76448   0.71915   1.000
    O463    O    0.97198   0.31288   0.72335   1.000
    O464    O    0.14196   0.05107   0.73989   1.000
    O465    O    0.95588   0.61837   0.71854   1.000
    O466    O    0.96454   0.54667   0.72573   1.000
    O467    O    0.97374   0.39234   0.72442   1.000
    O468    O    0.96959   0.46780   0.72640   1.000
    O469    O    0.39713   0.97125   0.74324   1.000
    O470    O    0.70848   0.62009   0.72916   1.000
    O471    O    0.71958   0.69675   0.74476   1.000
    O472    O    0.40513   0.82293   0.74675   1.000
    O473    O    0.90511   0.32295   0.75327   1.000
    O474    O    0.22820   0.26411   0.73876   1.000
    O475    O    0.21958   0.19676   0.75525   1.000
    O476    O    0.64195   0.55105   0.76012   1.000
    O477    O    0.89711   0.47127   0.75675   1.000
    O478    O    0.72820   0.76410   0.76124   1.000
    O479    O    0.46958   0.96777   0.77363   1.000
    O480    O    0.46453   0.04665   0.77435   1.000
    O481    O    0.20849   0.12010   0.77085   1.000
    O482    O    0.19679   0.05073   0.78263   1.000
    O483    O    0.66454   0.70701   0.79176   1.000
    O484    O    0.47374   0.89232   0.77559   1.000
    O485    O    0.47200   0.81285   0.77667   1.000
    O486    O    0.84061   0.26450   0.78085   1.000
    O487    O    0.83410   0.32840   0.78429   1.000
    O488    O    0.30327   0.19735   0.82076   1.000
    O489    O    0.82932   0.46756   0.78538   1.000
    O490    O    0.83025   0.40126   0.78580   1.000
    O491    O    0.45588   0.11837   0.78150   1.000
    O492    O    0.39954   0.18225   0.82139   1.000
    O493    O    0.53197   0.95990   0.79934   1.000
    O494    O    0.53111   0.11862   0.79868   1.000
    O495    O    0.57480   0.47580   0.79098   1.000
    O496    O    0.58512   0.55954   0.80686   1.000
    O497    O    0.53913   0.80232   0.80856   1.000
    O498    O    0.61774   0.84349   0.81072   1.000
    O499    O    0.73274   0.32117   0.83193   1.000
    O500    O    0.50294   0.40316   0.80805   1.000
    O501    O    0.61618   0.21314   0.84024   1.000
    O502    O    0.59661   0.63883   0.82289   1.000
    O503    O    0.61002   0.71694   0.84160   1.000
    O504    O    0.41488   0.30567   0.84270   1.000
    O505    O    0.53781   0.57517   0.84847   1.000
    O506    O    0.59126   0.78387   0.84804   1.000
    O507    O    0.58372   0.84404   0.85530   1.000
    O508    O    0.96685   0.73003   0.86121   1.000
    O509    O    0.01915   0.78854   0.86200   1.000
    O510    O    0.33218   0.15103   0.89754   1.000
    O511    O    0.33102   0.25803   0.90957   1.000
    O512    O    0.68936   0.36082   0.90381   1.000
    O513    O    0.69049   0.25034   0.91401   1.000
    O514    O    0.01943   0.73816   0.90275   1.000
    O515    O    0.96685   0.77752   0.90488   1.000
    O516    O    0.16842   0.89760   0.93335   1.000
    O517    O    0.83234   0.61393   0.94037   1.000
    O518    O    0.09130   0.74820   0.94220   1.000
    O519    O    0.89646   0.76334   0.94693   1.000
    O520    O    0.31401   0.05679   0.95075   1.000
    O521    O    0.36507   0.40651   0.94890   1.000
    O522    O    0.69776   0.44921   0.95998   1.000
    O523    O    0.63936   0.09753   0.95716   1.000
    O524    O    0.49615   0.22080   0.96164   1.000
    O525    O    0.52345   0.28287   0.96419   1.000
    O526    O    0.16092   0.82855   0.95456   1.000
    O527    O    0.23280   0.90463   0.96719   1.000
    O528    O    0.30904   0.33712   0.95851   1.000
    O529    O    0.24506   0.26074   0.97170   1.000
    O530    O    0.83269   0.68075   0.96054   1.000
    O531    O    0.76659   0.60178   0.97462   1.000
    O532    O    0.70096   0.16473   0.96500   1.000
    O533    O    0.77063   0.23824   0.97665   1.000
    O534    O    0.30856   0.98468   0.97813   1.000
    O535    O    0.69630   0.51870   0.98680   1.000
    O536    O    0.18659   0.19364   0.98584   1.000
    O537    O    0.83415   0.30263   0.98947   1.000
    O538    O    0.91660   0.22963   0.40754   1.000
    O539    O    0.05802   0.26026   0.40590   1.000
    O540    O    0.58330   0.27038   0.90758   1.000
    O541    O    0.44190   0.23974   0.90591   1.000
    O542    O    0.08335   0.77036   0.59244   1.000
    O543    O    0.94193   0.73972   0.59409   1.000
    O544    O    0.41664   0.72960   0.09242   1.000
    O545    O    0.55805   0.76024   0.09408   1.000
loop_
    _geom_bond_atom_site_label_1
    _geom_bond_atom_site_label_2
    _geom_bond_distance
    _geom_bond_site_symmetry_2
    _ccdc_geom_bond_type
    C243   O252      0.62253  1_554   S
    C168   O252      0.62253      .   S
    C164   O253      0.54549      .   S
    C66    O253      0.54549      .   S
    C164   O254      0.67202      .   S
    C196   O254      0.67202      .   S
    C164   O255      0.70108  1_554   S
    C165   O255      0.70108      .   S
    C110   O256      0.75665      .   S
    C111   O256      0.75665      .   S
    C110   O257      0.69789      .   S
    C109   O257      0.69789      .   S
    C110   O258      0.69716  1_554   S
    C131   O258      0.69716      .   S
    C62    O259      0.54148      .   S
    C158   O259      0.54148      .   S
    C158   O260      0.67205      .   S
    C198   O260      0.67205      .   S
    C158   O261      0.70084  1_554   S
    C159   O261      0.70084      .   S
    C249   O262      0.63449  1_554   S
    C163   O262      0.63449      .   S
    C115   O263      0.75666      .   S
    C116   O263      0.75666  1_565   S
    C115   O264      0.69856      .   S
    C114   O264      0.69856      .   S
    C115   O265      0.69797  1_554   S
    C117   O265      0.69797      .   S
    C79    O266      0.51954      .   S
    C251   O266      0.51954      .   S
    C111   O267      0.63771      .   S
    C215   O267      0.63771      .   S
    C111   O268      0.63474      .   S
    C223   O268      0.63474  1_556   S
    C78    O269      0.51445      .   S
    C251   O269      0.51445      .   S
    C116   O270      0.63650      .   S
    C213   O270      0.63650      .   S
    C116   O271      0.63616      .   S
    C217   O271      0.63616  1_556   S
    C169   O272      0.67446      .   S
    C196   O272      0.67446      .   S
    C169   O273      0.54351      .   S
    C68    O273      0.54351      .   S
    C169   O274      0.69795      .   S
    C167   O274      0.69795  1_556   S
    C107   O275      0.69787      .   S
    C109   O275      0.69787      .   S
    C107   O276      0.68798      .   S
    C214   O276      0.68798      .   S
    C107   O277      0.70086      .   S
    C106   O277      0.70086  1_556   S
    C183   O278      0.67396      .   S
    C198   O278      0.67396      .   S
    C183   O279      0.54272      .   S
    C77    O279      0.54272      .   S
    C183   O280      0.69699      .   S
    C162   O280      0.69699  1_556   S
    C196   O281      1.21129      .   S
    C6     O281      1.21129      .   S
    C113   O282      0.69734      .   S
    C114   O282      0.69734      .   S
    C113   O283      0.68681      .   S
    C216   O283      0.68681      .   S
    C113   O284      0.70109      .   S
    C112   O284      0.70109  1_556   S
    C109   O285      0.54364      .   S
    C29    O285      0.54364      .   S
    C198   O286      1.20149      .   S
    C7     O286      1.20149      .   S
    C114   O287      0.54345      .   S
    C31    O287      0.54345      .   S
    C215   O288      1.17625      .   S
    C6     O288      1.17625      .   S
    C213   O289      1.19170      .   S
    C7     O289      1.19170      .   S
    C214   O290      0.71322      .   S
    C108   O290      0.71322      .   S
    C216   O291      0.71367      .   S
    C108   O291      0.71367  1_455   S
    C108   O292      0.54720  1_455   S
    C28    O292      0.54720      .   S
    C108   O293      0.54736      .   S
    C27    O293      0.54736      .   S
    C71    O294      0.54885      .   S
    C174   O294      0.54885      .   S
    C72    O295      0.54505      .   S
    C176   O295      0.54505      .   S
    C6     O296      1.15381      .   S
    C245   O296      1.15381      .   S
    C6     O297      1.18876      .   S
    C187   O297      1.18876      .   S
    C6     O298      1.21019      .   S
    C244   O298      1.21019      .   S
    C7     O299      1.16709      .   S
    C250   O299      1.16709      .   S
    C7     O300      1.19936      .   S
    C248   O300      1.19936      .   S
    C7     O301      1.18772      .   S
    C185   O301      1.18772      .   S
    C247   O302      0.70003      .   S
    C174   O302      0.70003      .   S
    C247   O303      0.69169      .   S
    C175   O303      0.69169      .   S
    C174   O304      0.55156      .   S
    C70    O304      0.55156      .   S
    C174   O305      0.72216      .   S
    C246   O305      0.72216      .   S
    C176   O306      0.69764      .   S
    C175   O306      0.69764      .   S
    C176   O307      0.69824      .   S
    C177   O307      0.69824      .   S
    C250   O308      0.63716      .   S
    C180   O308      0.63716      .   S
    C175   O309      0.69816      .   S
    C179   O309      0.69816      .   S
    C69    O310      0.54368      .   S
    C172   O310      0.54368      .   S
    C245   O311      0.63714      .   S
    C170   O311      0.63714      .   S
    C19    O312      0.54367      .   S
    C100   O312      0.54367      .   S
    C180   O313      0.75767      .   S
    C177   O313      0.75767      .   S
    C180   O314      0.63385      .   S
    C244   O314      0.63385      .   S
    C187   O315      0.67479      .   S
    C104   O315      0.67479      .   S
    C187   O316      0.67129      .   S
    C103   O316      0.67129      .   S
    C22    O317      0.54311      .   S
    C104   O317      0.54311      .   S
    C21    O318      0.54522      .   S
    C103   O318      0.54522      .   S
    C246   O319      0.68192      .   S
    C173   O319      0.68192      .   S
    C177   O320      0.69965      .   S
    C178   O320      0.69965      .   S
    C170   O321      0.63317      .   S
    C248   O321      0.63317      .   S
    C170   O322      0.75781      .   S
    C171   O322      0.75781  1_545   S
    C172   O323      0.69900      .   S
    C173   O323      0.69900      .   S
    C172   O324      0.69907      .   S
    C171   O324      0.69907      .   S
    C104   O325      0.69734      .   S
    C93    O325      0.69734      .   S
    C185   O326      0.67290      .   S
    C100   O326      0.67290      .   S
    C185   O327      0.67379      .   S
    C101   O327      0.67379      .   S
    C103   O328      0.70214      .   S
    C95    O328      0.70214      .   S
    C173   O329      0.70233      .   S
    C181   O329      0.70233      .   S
    C179   O330      0.54528      .   S
    C74    O330      0.54528      .   S
    C179   O331      0.67382      .   S
    C197   O331      0.67382      .   S
    C100   O332      0.69930      .   S
    C99    O332      0.69930      .   S
    C171   O333      0.69736      .   S
    C182   O333      0.69736      .   S
    C20    O334      0.54527      .   S
    C101   O334      0.54527      .   S
    C93    O335      0.72475      .   S
    C94    O335      0.72475      .   S
    C93    O336      0.75756      .   S
    C92    O336      0.75756      .   S
    C178   O337      0.67290      .   S
    C197   O337      0.67290      .   S
    C178   O338      0.54371      .   S
    C73    O338      0.54371      .   S
    C101   O339      0.69814      .   S
    C97    O339      0.69814      .   S
    C95    O340      0.69890      .   S
    C94    O340      0.69890      .   S
    C95    O341      0.68201      .   S
    C207   O341      0.68201      .   S
    C181   O342      0.54522      .   S
    C75    O342      0.54522      .   S
    C181   O343      0.67128      .   S
    C199   O343      0.67128      .   S
    C197   O344      1.18770      .   S
    C1     O344      1.18770      .   S
    C182   O345      0.54310      .   S
    C76    O345      0.54310      .   S
    C182   O346      0.67477      .   S
    C199   O346      0.67477      .   S
    C209   O347      0.63316      .   S
    C92    O347      0.63316      .   S
    C209   O348      1.19925      .   S
    C1     O348      1.19925      .   S
    C205   O349      0.63384      .   S
    C102   O349      0.63384      .   S
    C205   O350      1.21004      .   S
    C0     O350      1.21004      .   S
    C94    O351      0.52098  1_455   S
    C15    O351      0.52098      .   S
    C92    O352      0.63733  1_455   S
    C206   O352      0.63733      .   S
    C99    O353      0.75796  1_565   S
    C102   O353      0.75796      .   S
    C99    O354      0.69855      .   S
    C98    O354      0.69855      .   S
    C207   O355      0.72206  1_455   S
    C96    O355      0.72206      .   S
    C16    O356      0.55123      .   S
    C96    O356      0.55123      .   S
    C199   O357      1.18871      .   S
    C0     O357      1.18871      .   S
    C102   O358      0.63733      .   S
    C211   O358      0.63733  1_455   S
    C206   O359      1.15381      .   S
    C0     O359      1.15381      .   S
    C97    O360      0.69765      .   S
    C98    O360      0.69765      .   S
    C97    O361      0.69170      .   S
    C208   O361      0.69170      .   S
    C211   O362      1.16710      .   S
    C1     O362      1.16710      .   S
    C98    O363      0.54504      .   S
    C18    O363      0.54504      .   S
    C96    O364      0.70022      .   S
    C208   O364      0.70022      .   S
    C96    O365      0.54921      .   S
    C17    O365      0.54921      .   S
    C45    O366      0.54739      .   S
    C134   O366      0.54739      .   S
    C46    O367      0.54716      .   S
    C134   O367      0.54716      .   S
    C1     O368      1.19177      .   S
    C226   O368      1.19177      .   S
    C1     O369      1.20109      .   S
    C186   O369      1.20109      .   S
    C0     O370      1.17636      .   S
    C228   O370      1.17636      .   S
    C0     O371      1.21122      .   S
    C184   O371      1.21122      .   S
    C134   O372      0.71349      .   S
    C229   O372      0.71349      .   S
    C134   O373      0.71320      .   S
    C227   O373      0.71320      .   S
    C49    O374      0.54351      .   S
    C140   O374      0.54351      .   S
    C47    O375      0.54387      .   S
    C135   O375      0.54387      .   S
    C229   O376      0.68680      .   S
    C139   O376      0.68680      .   S
    C227   O377      0.68799      .   S
    C133   O377      0.68799      .   S
    C226   O378      0.63645      .   S
    C142   O378      0.63645      .   S
    C23    O379      0.54303      .   S
    C105   O379      0.54303      .   S
    C228   O380      0.63772      .   S
    C137   O380      0.63772      .   S
    C14    O381      0.54358      .   S
    C91    O381      0.54358      .   S
    C212   O382      0.53329      .   S
    C24    O382      0.53329  1_455   S
    C212   O383      0.51953      .   S
    C25    O383      0.51953      .   S
    C140   O384      0.69733      .   S
    C139   O384      0.69733      .   S
    C140   O385      0.69855      .   S
    C141   O385      0.69855      .   S
    C186   O386      0.67405      .   S
    C105   O386      0.67405      .   S
    C186   O387      0.67237      .   S
    C80    O387      0.67237      .   S
    C135   O388      0.69791      .   S
    C133   O388      0.69791      .   S
    C135   O389      0.69805      .   S
    C136   O389      0.69805      .   S
    C139   O390      0.70110      .   S
    C138   O390      0.70110      .   S
    C184   O391      0.67452      .   S
    C91    O391      0.67452      .   S
    C184   O392      0.67219      .   S
    C86    O392      0.67219      .   S
    C105   O393      0.69703      .   S
    C84    O393      0.69703      .   S
    C133   O394      0.70091      .   S
    C132   O394      0.70091      .   S
    C91    O395      0.69796      .   S
    C89    O395      0.69796      .   S
    C142   O396      0.75646      .   S
    C141   O396      0.75646      .   S
    C142   O397      0.63622      .   S
    C230   O397      0.63622      .   S
    C137   O398      0.75689  1_545   S
    C136   O398      0.75689      .   S
    C137   O399      0.63471      .   S
    C236   O399      0.63471      .   S
    C8     O400      0.54541      .   S
    C80    O400      0.54541      .   S
    C141   O401      0.69797      .   S
    C143   O401      0.69797      .   S
    C12    O402      0.54549      .   S
    C86    O402      0.54549      .   S
    C210   O403      0.63469      .   S
    C85    O403      0.63469      .   S
    C80    O404      0.70089      .   S
    C81    O404      0.70089      .   S
    C136   O405      0.69705      .   S
    C157   O405      0.69705      .   S
    C86    O406      0.70105      .   S
    C87    O406      0.70105      .   S
    C204   O407      0.63618      .   S
    C90    O407      0.63618      .   S
    C138   O408      0.54549      .   S
    C48    O408      0.54549      .   S
    C138   O409      0.67215      .   S
    C192   O409      0.67215      .   S
    C84    O410      0.75689      .   S
    C85    O410      0.75689  1_565   S
    C84    O411      0.69806      .   S
    C83    O411      0.69806      .   S
    C132   O412      0.54540      .   S
    C44    O412      0.54540      .   S
    C132   O413      0.67233      .   S
    C194   O413      0.67233      .   S
    C89    O414      0.75646      .   S
    C90    O414      0.75646      .   S
    C89    O415      0.69859      .   S
    C88    O415      0.69859      .   S
    C61    O416      0.51953      .   S
    C238   O416      0.51953      .   S
    C85    O417      0.63772      .   S
    C202   O417      0.63772      .   S
    C60    O418      0.51444      .   S
    C238   O418      0.51444  1_455   S
    C90    O419      0.63646      .   S
    C200   O419      0.63646      .   S
    C143   O420      0.67451      .   S
    C192   O420      0.67451      .   S
    C143   O421      0.54358      .   S
    C50    O421      0.54358      .   S
    C81    O422      0.69791      .   S
    C83    O422      0.69791      .   S
    C81    O423      0.68798      .   S
    C201   O423      0.68798      .   S
    C157   O424      0.67404      .   S
    C194   O424      0.67404      .   S
    C157   O425      0.54272      .   S
    C59    O425      0.54272      .   S
    C192   O426      1.21111      .   S
    C4     O426      1.21111      .   S
    C87    O427      0.69734      .   S
    C88    O427      0.69734      .   S
    C87    O428      0.68684      .   S
    C203   O428      0.68684      .   S
    C83    O429      0.54355      .   S
    C11    O429      0.54355      .   S
    C194   O430      1.20109      .   S
    C5     O430      1.20109      .   S
    C88    O431      0.54345      .   S
    C13    O431      0.54345      .   S
    C202   O432      1.17630      .   S
    C4     O432      1.17630      .   S
    C200   O433      1.19176      .   S
    C5     O433      1.19176      .   S
    C201   O434      0.71322      .   S
    C82    O434      0.71322      .   S
    C203   O435      0.71348      .   S
    C82    O435      0.71348      .   S
    C82    O436      0.54712      .   S
    C10    O436      0.54712      .   S
    C82    O437      0.54739      .   S
    C9     O437      0.54739      .   S
    C53    O438      0.54927      .   S
    C148   O438      0.54927      .   S
    C54    O439      0.54529      .   S
    C150   O439      0.54529      .   S
    C4     O440      1.15361      .   S
    C232   O440      1.15361      .   S
    C4     O441      1.18879      .   S
    C191   O441      1.18879      .   S
    C4     O442      1.21011      .   S
    C231   O442      1.21011      .   S
    C5     O443      1.16712      .   S
    C237   O443      1.16712      .   S
    C5     O444      1.19924      .   S
    C235   O444      1.19924      .   S
    C5     O445      1.18771      .   S
    C189   O445      1.18771      .   S
    C234   O446      0.70007      .   S
    C148   O446      0.70007      .   S
    C234   O447      0.69175      .   S
    C149   O447      0.69175      .   S
    C148   O448      0.55155      .   S
    C52    O448      0.55155      .   S
    C148   O449      0.72232      .   S
    C233   O449      0.72232  1_655   S
    C150   O450      0.69769      .   S
    C149   O450      0.69769      .   S
    C150   O451      0.69870      .   S
    C151   O451      0.69870      .   S
    C237   O452      0.63731  1_655   S
    C154   O452      0.63731      .   S
    C149   O453      0.69818      .   S
    C153   O453      0.69818      .   S
    C51    O454      0.54373      .   S
    C146   O454      0.54373  1_655   S
    C232   O455      0.63754      .   S
    C144   O455      0.63754  1_655   S
    C37    O456      0.54371      .   S
    C126   O456      0.54371      .   S
    C154   O457      0.75796      .   S
    C151   O457      0.75796  1_545   S
    C154   O458      0.63384      .   S
    C231   O458      0.63384      .   S
    C191   O459      0.67478      .   S
    C130   O459      0.67478      .   S
    C191   O460      0.67129      .   S
    C129   O460      0.67129      .   S
    C40    O461      0.54310      .   S
    C130   O461      0.54310      .   S
    C39    O462      0.54524      .   S
    C129   O462      0.54524      .   S
    C233   O463      0.68192      .   S
    C147   O463      0.68192      .   S
    C151   O464      0.69931      .   S
    C152   O464      0.69931      .   S
    C144   O465      0.63316      .   S
    C235   O465      0.63316      .   S
    C144   O466      0.75757      .   S
    C145   O466      0.75757      .   S
    C146   O467      0.69899      .   S
    C147   O467      0.69899      .   S
    C146   O468      0.69925      .   S
    C145   O468      0.69925      .   S
    C130   O469      0.69735      .   S
    C119   O469      0.69735      .   S
    C189   O470      0.67291      .   S
    C126   O470      0.67291      .   S
    C189   O471      0.67378      .   S
    C127   O471      0.67378      .   S
    C129   O472      0.70231      .   S
    C121   O472      0.70231      .   S
    C147   O473      0.70229      .   S
    C155   O473      0.70229      .   S
    C153   O474      0.54527      .   S
    C56    O474      0.54527      .   S
    C153   O475      0.67380      .   S
    C193   O475      0.67380      .   S
    C126   O476      0.69930      .   S
    C125   O476      0.69930      .   S
    C145   O477      0.69704      .   S
    C156   O477      0.69704      .   S
    C38    O478      0.54526      .   S
    C127   O478      0.54526      .   S
    C119   O479      0.69897      .   S
    C120   O479      0.69897      .   S
    C119   O480      0.75781  1_565   S
    C118   O480      0.75781      .   S
    C152   O481      0.67291      .   S
    C193   O481      0.67291      .   S
    C152   O482      0.54369      .   S
    C55    O482      0.54369      .   S
    C127   O483      0.69772      .   S
    C123   O483      0.69772      .   S
    C121   O484      0.69891      .   S
    C120   O484      0.69891      .   S
    C121   O485      0.68194      .   S
    C220   O485      0.68194      .   S
    C155   O486      0.54524      .   S
    C57    O486      0.54524      .   S
    C155   O487      0.67129      .   S
    C195   O487      0.67129      .   S
    C193   O488      1.18767      .   S
    C3     O488      1.18767      .   S
    C156   O489      0.54328      .   S
    C58    O489      0.54328      .   S
    C156   O490      0.67493      .   S
    C195   O490      0.67493      .   S
    C222   O491      0.63317      .   S
    C118   O491      0.63317      .   S
    C222   O492      1.19935      .   S
    C3     O492      1.19935      .   S
    C120   O493      0.54386      .   S
    C33    O493      0.54386      .   S
    C118   O494      0.63712      .   S
    C219   O494      0.63712      .   S
    C125   O495      0.75773      .   S
    C128   O495      0.75773      .   S
    C125   O496      0.69852      .   S
    C124   O496      0.69852      .   S
    C220   O497      0.72215      .   S
    C122   O497      0.72215      .   S
    C34    O498      0.55152      .   S
    C122   O498      0.55152      .   S
    C195   O499      1.18879      .   S
    C2     O499      1.18879      .   S
    C128   O500      0.63714      .   S
    C224   O500      0.63714      .   S
    C219   O501      1.15382      .   S
    C2     O501      1.15382      .   S
    C123   O502      0.69773      .   S
    C124   O502      0.69773      .   S
    C123   O503      0.69213      .   S
    C221   O503      0.69213      .   S
    C224   O504      1.16710      .   S
    C3     O504      1.16710      .   S
    C124   O505      0.54504      .   S
    C36    O505      0.54504      .   S
    C122   O506      0.70004      .   S
    C221   O506      0.70004      .   S
    C122   O507      0.54885      .   S
    C35    O507      0.54885      .   S
    C63    O508      0.54735      .   S
    C160   O508      0.54735      .   S
    C64    O509      0.54721      .   S
    C160   O509      0.54721  1_655   S
    C3     O510      1.19173      .   S
    C239   O510      1.19173      .   S
    C3     O511      1.20112      .   S
    C190   O511      1.20112      .   S
    C2     O512      1.17627      .   S
    C241   O512      1.17627      .   S
    C2     O513      1.21102      .   S
    C188   O513      1.21102      .   S
    C160   O514      0.71364  1_655   S
    C242   O514      0.71364      .   S
    C160   O515      0.71321      .   S
    C240   O515      0.71321      .   S
    C67    O516      0.54348      .   S
    C166   O516      0.54348      .   S
    C65    O517      0.54383      .   S
    C161   O517      0.54383      .   S
    C242   O518      0.68681      .   S
    C165   O518      0.68681      .   S
    C240   O519      0.68801      .   S
    C159   O519      0.68801      .   S
    C239   O520      0.63647      .   S
    C168   O520      0.63647      .   S
    C41    O521      0.54256      .   S
    C131   O521      0.54256      .   S
    C241   O522      0.63758      .   S
    C163   O522      0.63758      .   S
    C32    O523      0.54361      .   S
    C117   O523      0.54361      .   S
    C225   O524      0.51440      .   S
    C42    O524      0.51440      .   S
    C225   O525      0.51950      .   S
    C43    O525      0.51950      .   S
    C166   O526      0.69733      .   S
    C165   O526      0.69733      .   S
    C166   O527      0.69857      .   S
    C167   O527      0.69857      .   S
    C190   O528      0.67400      .   S
    C131   O528      0.67400      .   S
    C190   O529      0.67232      .   S
    C106   O529      0.67232      .   S
    C161   O530      0.69791      .   S
    C159   O530      0.69791      .   S
    C161   O531      0.69805      .   S
    C162   O531      0.69805      .   S
    C188   O532      0.67452      .   S
    C117   O532      0.67452      .   S
    C188   O533      0.67217      .   S
    C112   O533      0.67217      .   S
    C168   O534      0.75666  1_545   S
    C167   O534      0.75666      .   S
    C163   O535      0.75668      .   S
    C162   O535      0.75668      .   S
    C26    O536      0.54540      .   S
    C106   O536      0.54540      .   S
    C30    O537      0.54549      .   S
    C112   O537      0.54549      .   S
    C212   O538      1.17307      .   S
    C0     O538      1.17307      .   S
    C212   O539      1.16473  1_655   S
    C1     O539      1.16473      .   S
    C225   O540      1.17297      .   S
    C2     O540      1.17297      .   S
    C225   O541      1.16453      .   S
    C3     O541      1.16453      .   S
    C238   O542      1.17300      .   S
    C4     O542      1.17300      .   S
    C238   O543      1.16471  1_455   S
    C5     O543      1.16471      .   S
    C251   O544      1.17294      .   S
    C6     O544      1.17294      .   S
    C251   O545      1.16450      .   S
    C7     O545      1.16450      .   S
