# CIF file generated by openbabel 2.4.90, see http://openbabel.sf.net
data_I
_chemical_name_common ''
_cell_length_a 10.7825
_cell_length_b 15.217
_cell_length_c 15.23
_cell_angle_alpha 117.713
_cell_angle_beta 107.007
_cell_angle_gamma 94.796
_space_group_name_H-M_alt 'P 1'
_space_group_name_Hall 'P 1'
loop_
    _symmetry_equiv_pos_as_xyz
    x,y,z
loop_
    _atom_site_label
    _atom_site_type_symbol
    _atom_site_fract_x
    _atom_site_fract_y
    _atom_site_fract_z
    _atom_site_occupancy
    H0      H    0.12743   0.68451   0.79892   1.000
    H1      H    0.32674   0.68393   0.93191   1.000
    H2      H    0.18995   0.35205   0.75358   1.000
    H3      H    0.99890   0.36594   0.62700   1.000
    H4      H    0.26511   0.42084   0.95585   1.000
    H5      H    0.42074   0.50619   0.73965   1.000
    H6      H    0.50931   0.58964   0.65846   1.000
    H7      H    0.81146   0.80540   0.94783   1.000
    H8      H    0.73264   0.73301   0.04402   1.000
    H9      H    0.12018   0.93056   0.08775   1.000
    H10     H    0.07162   0.74094   0.98338   1.000
    H11     H    0.10521   0.74197   0.27413   1.000
    H12     H    0.15209   0.93219   0.36656   1.000
    H13     H    0.88698   0.60201   0.93134   1.000
    H14     H    0.16688   0.52175   0.27259   1.000
    H15     H    0.37813   0.59826   0.43022   1.000
    H16     H    0.55838   0.74756   0.31311   1.000
    H17     H    0.34984   0.68215   0.15185   1.000
    H18     H    0.87256   0.31549   0.20108   1.000
    H19     H    0.67322   0.31601   0.06808   1.000
    H20     H    0.80984   0.64791   0.24643   1.000
    H21     H    0.00091   0.63406   0.37305   1.000
    H22     H    0.73478   0.57905   0.04411   1.000
    H23     H    0.57922   0.49376   0.26031   1.000
    H24     H    0.49083   0.41025   0.34153   1.000
    H25     H    0.18863   0.19445   0.05221   1.000
    H26     H    0.26728   0.26688   0.95598   1.000
    H27     H    0.87989   0.06947   0.91234   1.000
    H28     H    0.92863   0.25909   0.01672   1.000
    H29     H    0.89477   0.25801   0.72591   1.000
    H30     H    0.84772   0.06779   0.63347   1.000
    H31     H    0.11305   0.39799   0.06868   1.000
    H32     H    0.83330   0.47834   0.72754   1.000
    H33     H    0.62209   0.40178   0.56985   1.000
    H34     H    0.44180   0.25239   0.68686   1.000
    H35     H    0.65028   0.31787   0.84820   1.000
    C36     C    0.14492   0.61248   0.79226   1.000
    C37     C    0.25588   0.61148   0.86599   1.000
    C38     C    0.27663   0.51726   0.85372   1.000
    C39     C    0.17913   0.42775   0.76836   1.000
    C40     C    0.07189   0.43484   0.69720   1.000
    C41     C    0.39443   0.50968   0.92685   1.000
    C42     C    0.36952   0.45295   0.97343   1.000
    C43     C    0.52891   0.55791   0.95303   1.000
    C44     C    0.56945   0.61072   0.90081   1.000
    C45     C    0.50650   0.57322   0.79084   1.000
    C46     C    0.55672   0.61944   0.74396   1.000
    C47     C    0.72480   0.73906   0.90487   1.000
    C48     C    0.68022   0.69739   0.95787   1.000
    C49     C    0.11685   0.88598   0.12645   1.000
    C50     C    0.08902   0.77940   0.06836   1.000
    C51     C    0.08480   0.72312   0.11945   1.000
    C52     C    0.10877   0.78017   0.22929   1.000
    C53     C    0.13504   0.88665   0.28173   1.000
    C54     C    0.04868   0.60903   0.05893   1.000
    C55     C    0.93914   0.55676   0.96036   1.000
    C56     C    0.11284   0.55036   0.09918   1.000
    C57     C    0.23764   0.59574   0.19699   1.000
    C58     C    0.24987   0.57198   0.27732   1.000
    C59     C    0.36915   0.61438   0.36634   1.000
    C60     C    0.46832   0.69807   0.30125   1.000
    C61     C    0.35141   0.66116   0.21143   1.000
    C62     C    0.85500   0.38750   0.20774   1.000
    C63     C    0.74405   0.38847   0.13399   1.000
    C64     C    0.72326   0.48269   0.14626   1.000
    C65     C    0.82072   0.57222   0.23164   1.000
    C66     C    0.92794   0.56516   0.30283   1.000
    C67     C    0.60546   0.49023   0.07312   1.000
    C68     C    0.63037   0.54694   0.02652   1.000
    C69     C    0.47097   0.44201   0.04695   1.000
    C70     C    0.43051   0.38918   0.09917   1.000
    C71     C    0.49351   0.42670   0.20914   1.000
    C72     C    0.44335   0.38047   0.25604   1.000
    C73     C    0.27525   0.26082   0.09515   1.000
    C74     C    0.31976   0.30249   0.04213   1.000
    C75     C    0.88320   0.11404   0.87362   1.000
    C76     C    0.91112   0.22063   0.93172   1.000
    C77     C    0.91526   0.27691   0.88062   1.000
    C78     C    0.89122   0.21983   0.77076   1.000
    C79     C    0.86486   0.11334   0.71832   1.000
    C80     C    0.95142   0.39099   0.94113   1.000
    C81     C    0.06092   0.44328   0.03969   1.000
    C82     C    0.88725   0.44967   0.90089   1.000
    C83     C    0.76249   0.40429   0.80307   1.000
    C84     C    0.75030   0.42808   0.72277   1.000
    C85     C    0.63105   0.38566   0.63372   1.000
    C86     C    0.53186   0.30192   0.69877   1.000
    C87     C    0.64873   0.33885   0.78862   1.000
    N88     N    0.05468   0.52539   0.70634   1.000
    N89     N    0.66614   0.70014   0.79828   1.000
    N90     N    0.13972   0.94039   0.23213   1.000
    N91     N    0.47894   0.67611   0.37929   1.000
    N92     N    0.94520   0.47460   0.29367   1.000
    N93     N    0.33404   0.29970   0.20173   1.000
    N94     N    0.86012   0.05960   0.76791   1.000
    N95     N    0.52130   0.32386   0.62073   1.000
loop_
    _geom_bond_atom_site_label_1
    _geom_bond_atom_site_label_2
    _geom_bond_distance
    _geom_bond_site_symmetry_2
    _ccdc_geom_bond_type
    H28    C76       1.08987  1_554   S
    C68    H22       1.08984      .   S
    C68    C67       1.40107      .   S
    C68    C43       1.40199  1_554   S
    C81    H31       1.09005      .   S
    C81    C56       1.40261      .   S
    C81    C80       1.40558  1_454   S
    C74    C73       1.39167      .   S
    C74    C70       1.40879      .   S
    C74    H26       1.09014  1_554   S
    H8     C48       1.09013  1_554   S
    C69    C67       1.41844      .   S
    C69    C70       1.48597      .   S
    C69    C42       1.40196  1_554   S
    H25    C73       1.09113      .   S
    C54    C56       1.41979      .   S
    C54    C51       1.48444      .   S
    C54    C55       1.40585  1_454   S
    H19    C63       1.08996      .   S
    C50    C51       1.40530      .   S
    C50    C49       1.38994      .   S
    C50    H10       1.08986  1_554   S
    C67    C64       1.47752      .   S
    H9     C49       1.09056      .   S
    C73    N93       1.35235      .   S
    C70    C71       1.40454      .   S
    C56    C57       1.49059      .   S
    C51    C52       1.40634      .   S
    C49    N90       1.35314      .   S
    C63    C64       1.40346      .   S
    C63    C62       1.38765      .   S
    C64    C65       1.40169      .   S
    H17    C61       1.08954      .   S
    C57    C61       1.40666      .   S
    C57    C58       1.40355      .   S
    H18    C62       1.09060      .   S
    N93    C72       1.35135      .   S
    C62    N92       1.35717      .   S
    C71    C72       1.38814      .   S
    C71    H23       1.08816      .   S
    C61    C60       1.39078      .   S
    C52    H11       1.08920      .   S
    C52    C53       1.38958      .   S
    C65    H20       1.08988      .   S
    C65    C66       1.38555      .   S
    N90    C53       1.35343      .   S
    C72    H24       1.08871      .   S
    H14    C58       1.08950      .   S
    C58    C59       1.39148      .   S
    C53    H12       1.09097      .   S
    N92    C66       1.35348      .   S
    C60    H16       1.09146      .   S
    C60    N91       1.35405      .   S
    C66    H21       1.09041  1_655   S
    C59    N91       1.35200      .   S
    C59    H15       1.08940      .   S
    H33    C85       1.08942      .   S
    N95    C85       1.35196      .   S
    N95    C86       1.35407      .   S
    H3     C40       1.09039  1_655   S
    H30    C79       1.09096      .   S
    C85    C84       1.39143      .   S
    H6     C46       1.08871      .   S
    H34    C86       1.09145      .   S
    C40    N88       1.35350      .   S
    C40    C39       1.38558      .   S
    C86    C87       1.39069      .   S
    N88    C36       1.35721      .   S
    C79    N94       1.35346      .   S
    C79    C78       1.38959      .   S
    C84    H32       1.08948      .   S
    C84    C83       1.40354      .   S
    H29    C78       1.08919      .   S
    H5     C45       1.08819      .   S
    C46    C45       1.38820      .   S
    C46    N89       1.35135      .   S
    H2     C39       1.08987      .   S
    N94    C75       1.35314      .   S
    C39    C38       1.40167      .   S
    C78    C77       1.40637      .   S
    C87    C83       1.40661      .   S
    C87    H35       1.08954      .   S
    C45    C44       1.40454      .   S
    C36    H0        1.09057      .   S
    C36    C37       1.38774      .   S
    N89    C47       1.35229      .   S
    C83    C82       1.49036      .   S
    C38    C37       1.40347      .   S
    C38    C41       1.47754      .   S
    C37    H1        1.08997      .   S
    C75    H27       1.09056      .   S
    C75    C76       1.38999      .   S
    C77    C76       1.40530      .   S
    C77    C80       1.48452      .   S
    C44    C43       1.48600      .   S
    C44    C48       1.40879      .   S
    C82    C80       1.41979      .   S
    C82    C55       1.40261      .   S
    C47    H7        1.09112      .   S
    C47    C48       1.39167      .   S
    C41    C43       1.41846      .   S
    C41    C42       1.40110      .   S
    H13    C55       1.09002      .   S
    H4     C42       1.08984      .   S
