# CIF file generated by openbabel 2.4.90, see http://openbabel.sf.net
data_I
_chemical_name_common ''
_cell_length_a 10.7825
_cell_length_b 15.217
_cell_length_c 15.23
_cell_angle_alpha 117.713
_cell_angle_beta 107.007
_cell_angle_gamma 94.796
_space_group_name_H-M_alt 'P 1'
_space_group_name_Hall 'P 1'
loop_
    _symmetry_equiv_pos_as_xyz
    x,y,z
loop_
    _atom_site_label
    _atom_site_type_symbol
    _atom_site_fract_x
    _atom_site_fract_y
    _atom_site_fract_z
    _atom_site_occupancy
    Cu0     Cu   0.90397   0.74420   0.61665   1.000
    Cu1     Cu   0.73330   0.75443   0.71539   1.000
    Cu2     Cu   0.64754   0.73889   0.51707   1.000
    Cu3     Cu   0.80839   0.90386   0.68784   1.000
    Cu4     Cu   0.05017   0.47369   0.42724   1.000
    Cu5     Cu   0.09680   0.25623   0.38375   1.000
    Cu6     Cu   0.26721   0.24535   0.28465   1.000
    Cu7     Cu   0.35301   0.26087   0.48290   1.000
    Cu8     Cu   0.19102   0.09611   0.31211   1.000
    Cu9     Cu   0.95042   0.52652   0.57296   1.000
    I10     I    0.70864   0.56876   0.53265   1.000
    I11     I    0.12141   0.67544   0.58589   1.000
    I12     I    0.98949   0.86439   0.83371   1.000
    I13     I    0.84741   0.83741   0.49741   1.000
    I14     I    0.54843   0.84954   0.66680   1.000
    I15     I    0.29180   0.43130   0.46739   1.000
    I16     I    0.87838   0.32457   0.41419   1.000
    I17     I    0.01045   0.13559   0.16619   1.000
    I18     I    0.15290   0.16271   0.50277   1.000
    I19     I    0.45153   0.15000   0.33309   1.000
loop_
    _geom_bond_atom_site_label_1
    _geom_bond_atom_site_label_2
    _geom_bond_distance
    _geom_bond_site_symmetry_2
    _ccdc_geom_bond_type
    I17    Cu6       2.68549      .   S
    Cu6    Cu8       2.60382      .   S
    Cu6    I19       2.68689      .   S
    Cu6    Cu5       2.66880      .   S
    Cu6    Cu7       2.77386      .   S
    Cu8    Cu5       2.59786      .   S
    Cu8    Cu7       2.57809      .   S
    Cu5    Cu7       2.71015      .   S
    I16    Cu4       2.69850  1_655   S
    Cu4    I15       2.70086      .   S
    Cu4    Cu9       2.57094  1_455   S
    Cu7    I18       2.69105      .   S
    I13    Cu2       2.69008      .   S
    Cu2    Cu0       2.71064      .   S
    Cu2    Cu3       2.57581      .   S
    Cu2    Cu1       2.77476      .   S
    I10    Cu9       2.70140      .   S
    Cu9    I11       2.69211  1_655   S
    Cu0    Cu3       2.60048      .   S
    Cu0    Cu1       2.66859      .   S
    I14    Cu1       2.68901      .   S
    Cu3    Cu1       2.60387      .   S
    Cu1    I12       2.68115      .   S
