# CIF file generated by openbabel 2.4.90, see http://openbabel.sf.net
data_I
_chemical_name_common ''
_cell_length_a 10.7825
_cell_length_b 15.217
_cell_length_c 15.23
_cell_angle_alpha 117.713
_cell_angle_beta 107.007
_cell_angle_gamma 94.796
_space_group_name_H-M_alt 'P 1'
_space_group_name_Hall 'P 1'
loop_
    _symmetry_equiv_pos_as_xyz
    x,y,z
loop_
    _atom_site_label
    _atom_site_type_symbol
    _atom_site_fract_x
    _atom_site_fract_y
    _atom_site_fract_z
    _atom_site_occupancy
    N0      N    0.49997   0.49996   1.00000   1.000
    N1      N    0.00005   0.50001   0.00003   1.000
    Zr2     Zr   0.21756   0.18669   0.35221   1.000
    O3      O    0.15013   0.22291   0.24414   1.000
    O4      O    0.30893   0.28647   0.23690   1.000
    O5      O    0.21808   0.29144   0.56406   1.000
    Zr6     Zr   0.78265   0.81324   0.64784   1.000
    O7      O    0.69125   0.71343   0.76313   1.000
    O8      O    0.78214   0.70850   0.43597   1.000
    O9      O    0.84990   0.77706   0.75590   1.000
    Zr10    Zr   0.00014   0.50005   0.50005   1.000
    O11     O    0.12570   0.50650   0.65994   1.000
    O12     O    0.87448   0.49355   0.34014   1.000
loop_
    _geom_bond_atom_site_label_1
    _geom_bond_atom_site_label_2
    _geom_bond_distance
    _geom_bond_site_symmetry_2
    _ccdc_geom_bond_type
    Zr2    O3        1.93697      .   S
    N1     O3        6.81344      .   S
    Zr2    O4        3.09864      .   S
    N0     O4        6.47661  1_556   S
    Zr2    O5        2.85586      .   S
    N1     O5        7.10389  1_554   S
    Zr6    O7        3.09892      .   S
    N0     O7        6.47696      .   S
    Zr6    O8        2.85610      .   S
    N1     O8        7.10268  1_455   S
    Zr6    O9        1.93621      .   S
    N1     O9        6.81307  1_454   S
    Zr10   O11       2.36619      .   S
    N0     O11       5.60707      .   S
    Zr10   O12       2.36652  1_455   S
    N0     O12       5.60812  1_556   S
