# CIF file generated by openbabel 2.4.90, see http://openbabel.sf.net
data_I
_chemical_name_common ''
_cell_length_a 17.434
_cell_length_b 12.841
_cell_length_c 17.875
_cell_angle_alpha 90.002
_cell_angle_beta 89.998
_cell_angle_gamma 112.94
_space_group_name_H-M_alt 'P 1'
_space_group_name_Hall 'P 1'
loop_
    _symmetry_equiv_pos_as_xyz
    x,y,z
loop_
    _atom_site_label
    _atom_site_type_symbol
    _atom_site_fract_x
    _atom_site_fract_y
    _atom_site_fract_z
    _atom_site_occupancy
    Zr0     Zr   0.46695   0.95406   0.61103   1.000
    Zr1     Zr   0.96695   0.95406   0.61103   1.000
    Zr2     Zr   0.28305   0.04591   0.11100   1.000
    Zr3     Zr   0.78305   0.04591   0.11102   1.000
    Zr4     Zr   0.03305   0.04591   0.38897   1.000
    Zr5     Zr   0.53304   0.04591   0.38897   1.000
    Zr6     Zr   0.21696   0.95405   0.88898   1.000
    Zr7     Zr   0.71696   0.95405   0.88898   1.000
    N8      N    0.93271   0.43513   0.17901   1.000
    O9      O    0.05551   0.65906   0.05705   1.000
    O10     O    0.76617   0.24326   0.27232   1.000
    O11     O    0.08205   0.19132   0.14281   1.000
    N12     N    0.68271   0.43512   0.32096   1.000
    O13     O    0.83204   0.19131   0.35716   1.000
    O14     O    0.80550   0.65906   0.44294   1.000
    O15     O    0.51617   0.24325   0.22766   1.000
    N16     N    0.81730   0.56484   0.67903   1.000
    O17     O    0.66796   0.80865   0.64284   1.000
    O18     O    0.69450   0.34090   0.55706   1.000
    O19     O    0.98384   0.75671   0.77233   1.000
    N20     N    0.99953   0.49999   0.50000   1.000
    O21     O    0.02618   0.74915   0.47184   1.000
    O22     O    0.97334   0.25083   0.52815   1.000
    N23     N    0.25001   0.49999   0.99999   1.000
    O24     O    0.27642   0.74915   0.02814   1.000
    O25     O    0.22358   0.25082   0.97184   1.000
    N26     N    0.50001   0.49999   0.49999   1.000
    O27     O    0.52642   0.74915   0.47184   1.000
    O28     O    0.47358   0.25083   0.52815   1.000
    N29     N    0.56729   0.56482   0.82094   1.000
    O30     O    0.41796   0.80864   0.85716   1.000
    O31     O    0.44450   0.34089   0.94292   1.000
    O32     O    0.73383   0.75670   0.72765   1.000
    N33     N    0.31730   0.56484   0.67903   1.000
    O34     O    0.48384   0.75671   0.77233   1.000
    O35     O    0.16796   0.80865   0.64284   1.000
    O36     O    0.19450   0.34090   0.55706   1.000
    N37     N    0.75001   0.49999   1.00000   1.000
    O38     O    0.77642   0.74915   0.02815   1.000
    O39     O    0.72358   0.25082   0.97185   1.000
    N40     N    0.06729   0.56483   0.82097   1.000
    O41     O    0.23383   0.75670   0.72767   1.000
    O42     O    0.94450   0.34089   0.94294   1.000
    O43     O    0.91796   0.80864   0.85717   1.000
    N44     N    0.43271   0.43513   0.17901   1.000
    O45     O    0.58205   0.19132   0.14282   1.000
    O46     O    0.26617   0.24326   0.27230   1.000
    O47     O    0.55551   0.65906   0.05705   1.000
    N48     N    0.18271   0.43512   0.32096   1.000
    O49     O    0.30550   0.65906   0.44294   1.000
    O50     O    0.01616   0.24325   0.22767   1.000
    O51     O    0.33204   0.19131   0.35716   1.000
    O52     O    0.50764   0.71113   0.53916   1.000
    O53     O    0.39544   0.74176   0.67351   1.000
    O54     O    0.99213   0.28884   0.46083   1.000
    O55     O    0.10456   0.25820   0.32648   1.000
    O56     O    0.49237   0.28884   0.46083   1.000
    O57     O    0.60456   0.25820   0.32648   1.000
    O58     O    0.74237   0.28884   0.03916   1.000
    O59     O    0.85456   0.25821   0.17350   1.000
    O60     O    0.64544   0.74175   0.82647   1.000
    O61     O    0.75764   0.71113   0.96083   1.000
    O62     O    0.25764   0.71113   0.96083   1.000
    O63     O    0.14544   0.74175   0.82648   1.000
    O64     O    0.00740   0.71113   0.53917   1.000
    O65     O    0.89544   0.74176   0.67352   1.000
    O66     O    0.24237   0.28884   0.03916   1.000
    O67     O    0.35457   0.25821   0.17350   1.000
loop_
    _geom_bond_atom_site_label_1
    _geom_bond_atom_site_label_2
    _geom_bond_distance
    _geom_bond_site_symmetry_2
    _ccdc_geom_bond_type
    N8     O9        3.57847  1_655   S
    Zr6    O9        4.79435  1_556   S
    N8     O10       3.42137      .   S
    Zr5    O10       4.38854      .   S
    N8     O11       4.83249  1_655   S
    Zr2    O11       4.60326      .   S
    N12    O13       4.83250      .   S
    Zr4    O13       4.60328  1_455   S
    N12    O14       3.57868      .   S
    Zr1    O14       4.79461      .   S
    N12    O15       3.42132      .   S
    Zr2    O15       4.38856      .   S
    N16    O17       4.83255      .   S
    Zr0    O17       4.60332      .   S
    N16    O18       3.57865      .   S
    Zr5    O18       4.79456      .   S
    N16    O19       3.42131      .   S
    Zr6    O19       4.38845  1_455   S
    N20    O21       3.08974  1_655   S
    Zr4    O21       4.04661  1_545   S
    N20    O22       3.09194      .   S
    Zr1    O22       4.04951  1_565   S
    N23    O24       3.09077  1_556   S
    Zr2    O24       4.04784  1_545   S
    N23    O25       3.09087      .   S
    Zr6    O25       4.04797  1_565   S
    N26    O27       3.09080      .   S
    Zr5    O27       4.04801  1_545   S
    N26    O28       3.09088      .   S
    Zr0    O28       4.04811  1_565   S
    N29    O30       4.83256      .   S
    Zr6    O30       4.60329      .   S
    N29    O31       3.57867      .   S
    Zr2    O31       4.79441  1_554   S
    N29    O32       3.42121      .   S
    Zr1    O32       4.38828      .   S
    N33    O34       3.42132      .   S
    Zr7    O34       4.38846      .   S
    N33    O35       4.83256      .   S
    Zr1    O35       4.60333  1_655   S
    N33    O36       3.57864      .   S
    Zr4    O36       4.79455      .   S
    N37    O38       3.09079  1_556   S
    Zr3    O38       4.04794  1_545   S
    N37    O39       3.09086      .   S
    Zr7    O39       4.04801  1_565   S
    N40    O41       3.42127      .   S
    Zr0    O41       4.38842      .   S
    N40    O42       3.57860  1_455   S
    Zr3    O42       4.79445  1_554   S
    N40    O43       4.83253  1_455   S
    Zr7    O43       4.60326      .   S
    N44    O45       4.83246      .   S
    Zr3    O45       4.60321      .   S
    N44    O46       3.42121      .   S
    Zr4    O46       4.38873      .   S
    N44    O47       3.57844      .   S
    Zr7    O47       4.79433  1_556   S
    N48    O49       3.57868      .   S
    Zr0    O49       4.79461      .   S
    N48    O50       3.42129      .   S
    Zr3    O50       4.38845  1_655   S
    N48    O51       4.83250      .   S
    Zr5    O51       4.60327      .   S
    Zr0    O52       3.68901      .   S
    N26    O52       2.75272      .   S
    Zr0    O53       2.75393      .   S
    N33    O53       2.14809      .   S
    Zr4    O54       3.69119  1_455   S
    N20    O54       2.75414      .   S
    Zr4    O55       2.75397      .   S
    N48    O55       2.14808      .   S
    Zr5    O56       3.68900      .   S
    N26    O56       2.75273      .   S
    Zr5    O57       2.75397      .   S
    N12    O57       2.14808      .   S
    Zr3    O58       3.68907      .   S
    N37    O58       2.75279  1_556   S
    Zr3    O59       2.75398      .   S
    N8     O59       2.14809      .   S
    Zr7    O60       2.75416      .   S
    N29    O60       2.14811      .   S
    Zr7    O61       3.68894      .   S
    N37    O61       2.75270      .   S
    Zr6    O62       3.68892      .   S
    N23    O62       2.75272      .   S
    Zr6    O63       2.75407      .   S
    N40    O63       2.14810      .   S
    Zr1    O64       3.68685  1_655   S
    N20    O64       2.75132  1_655   S
    Zr1    O65       2.75399      .   S
    N16    O65       2.14809      .   S
    Zr2    O66       3.68900      .   S
    N23    O66       2.75276  1_556   S
    Zr2    O67       2.75407      .   S
    N44    O67       2.14809      .   S
