# CIF file generated by openbabel 2.4.90, see http://openbabel.sf.net
data_I
_chemical_name_common ''
_cell_length_a 17.434
_cell_length_b 12.841
_cell_length_c 17.875
_cell_angle_alpha 90.002
_cell_angle_beta 89.998
_cell_angle_gamma 112.94
_space_group_name_H-M_alt 'P 1'
_space_group_name_Hall 'P 1'
loop_
    _symmetry_equiv_pos_as_xyz
    x,y,z
loop_
    _atom_site_label
    _atom_site_type_symbol
    _atom_site_fract_x
    _atom_site_fract_y
    _atom_site_fract_z
    _atom_site_occupancy
    Zr0     Zr   0.46695   0.95406   0.61103   1.000
    Zr1     Zr   0.96695   0.95406   0.61103   1.000
    Zr2     Zr   0.28305   0.04591   0.11100   1.000
    Zr3     Zr   0.78305   0.04591   0.11102   1.000
    Zr4     Zr   0.03305   0.04591   0.38897   1.000
    Zr5     Zr   0.53304   0.04591   0.38897   1.000
    Zr6     Zr   0.21696   0.95405   0.88898   1.000
    Zr7     Zr   0.71696   0.95405   0.88898   1.000
    N8      N    0.93271   0.43513   0.17901   1.000
    O9      O    0.86960   0.28314   0.17183   1.000
    O10     O    0.05551   0.65906   0.05705   1.000
    O11     O    0.76617   0.24326   0.27232   1.000
    O12     O    0.08205   0.19132   0.14281   1.000
    O13     O    0.83953   0.23328   0.17518   1.000
    N14     N    0.68271   0.43512   0.32096   1.000
    O15     O    0.61960   0.28313   0.32816   1.000
    O16     O    0.83204   0.19131   0.35716   1.000
    O17     O    0.58952   0.23327   0.32480   1.000
    O18     O    0.80550   0.65906   0.44294   1.000
    O19     O    0.51617   0.24325   0.22766   1.000
    N20     N    0.81730   0.56484   0.67903   1.000
    O21     O    0.66796   0.80865   0.64284   1.000
    O22     O    0.91048   0.76669   0.67520   1.000
    O23     O    0.88040   0.71683   0.67184   1.000
    O24     O    0.69450   0.34090   0.55706   1.000
    O25     O    0.98384   0.75671   0.77233   1.000
    N26     N    0.99953   0.49999   0.50000   1.000
    O27     O    0.00514   0.69608   0.55098   1.000
    O28     O    0.02618   0.74915   0.47184   1.000
    O29     O    0.00966   0.72618   0.52736   1.000
    O30     O    0.99439   0.30390   0.44902   1.000
    O31     O    0.97334   0.25083   0.52815   1.000
    O32     O    0.98987   0.27379   0.47264   1.000
    N33     N    0.25001   0.49999   0.99999   1.000
    O34     O    0.27642   0.74915   0.02814   1.000
    O35     O    0.25990   0.72618   0.97263   1.000
    O36     O    0.25538   0.69607   0.94902   1.000
    O37     O    0.22358   0.25082   0.97184   1.000
    O38     O    0.24011   0.27379   0.02735   1.000
    O39     O    0.24463   0.30390   0.05096   1.000
    N40     N    0.50001   0.49999   0.49999   1.000
    O41     O    0.52642   0.74915   0.47184   1.000
    O42     O    0.50990   0.72618   0.52735   1.000
    O43     O    0.47358   0.25083   0.52815   1.000
    O44     O    0.49011   0.27379   0.47264   1.000
    O45     O    0.49463   0.30390   0.44902   1.000
    O46     O    0.50538   0.69608   0.55097   1.000
    N47     N    0.56729   0.56482   0.82094   1.000
    O48     O    0.66048   0.76668   0.82479   1.000
    O49     O    0.41796   0.80864   0.85716   1.000
    O50     O    0.44450   0.34089   0.94292   1.000
    O51     O    0.73383   0.75670   0.72765   1.000
    O52     O    0.63040   0.71682   0.82815   1.000
    N53     N    0.31730   0.56484   0.67903   1.000
    O54     O    0.48384   0.75671   0.77233   1.000
    O55     O    0.16796   0.80865   0.64284   1.000
    O56     O    0.38040   0.71683   0.67182   1.000
    O57     O    0.41048   0.76669   0.67520   1.000
    O58     O    0.19450   0.34090   0.55706   1.000
    N59     N    0.75001   0.49999   1.00000   1.000
    O60     O    0.75538   0.69607   0.94902   1.000
    O61     O    0.77642   0.74915   0.02815   1.000
    O62     O    0.75990   0.72619   0.97264   1.000
    O63     O    0.74463   0.30390   0.05097   1.000
    O64     O    0.72358   0.25082   0.97185   1.000
    O65     O    0.74011   0.27379   0.02736   1.000
    N66     N    0.06729   0.56483   0.82097   1.000
    O67     O    0.16048   0.76668   0.82481   1.000
    O68     O    0.23383   0.75670   0.72767   1.000
    O69     O    0.94450   0.34089   0.94294   1.000
    O70     O    0.91796   0.80864   0.85717   1.000
    O71     O    0.13040   0.71682   0.82816   1.000
    N72     N    0.43271   0.43513   0.17901   1.000
    O73     O    0.36960   0.28314   0.17182   1.000
    O74     O    0.58205   0.19132   0.14282   1.000
    O75     O    0.26617   0.24326   0.27230   1.000
    O76     O    0.33953   0.23328   0.17518   1.000
    O77     O    0.55551   0.65906   0.05705   1.000
    N78     N    0.18271   0.43512   0.32096   1.000
    O79     O    0.11960   0.28313   0.32816   1.000
    O80     O    0.30550   0.65906   0.44294   1.000
    O81     O    0.08952   0.23327   0.32480   1.000
    O82     O    0.01616   0.24325   0.22767   1.000
    O83     O    0.33204   0.19131   0.35716   1.000
loop_
    _geom_bond_atom_site_label_1
    _geom_bond_atom_site_label_2
    _geom_bond_distance
    _geom_bond_site_symmetry_2
    _ccdc_geom_bond_type
    N8     O9        1.83365      .   S
    Zr3    O9        3.02571      .   S
    N8     O10       3.57847  1_655   S
    Zr6    O10       4.79435  1_556   S
    N8     O11       3.42137      .   S
    Zr5    O11       4.38854      .   S
    N8     O12       4.83249  1_655   S
    Zr2    O12       4.60326      .   S
    N8     O13       2.46570      .   S
    Zr3    O13       2.49544      .   S
    N14    O15       1.83364      .   S
    Zr5    O15       3.02570      .   S
    N14    O16       4.83250      .   S
    Zr4    O16       4.60328  1_455   S
    N14    O17       2.46569      .   S
    Zr5    O17       2.49545      .   S
    N14    O18       3.57868      .   S
    Zr1    O18       4.79461      .   S
    N14    O19       3.42132      .   S
    Zr2    O19       4.38856      .   S
    N20    O21       4.83255      .   S
    Zr0    O21       4.60332      .   S
    N20    O22       2.46570      .   S
    Zr1    O22       2.49547      .   S
    N20    O23       1.83365      .   S
    Zr1    O23       3.02572      .   S
    N20    O24       3.57865      .   S
    Zr5    O24       4.79456      .   S
    N20    O25       3.42131      .   S
    Zr6    O25       4.38845  1_455   S
    N26    O27       2.64346  1_655   S
    Zr1    O27       3.78006  1_655   S
    N26    O28       3.08974  1_655   S
    Zr4    O28       4.04661  1_545   S
    N26    O29       2.88215  1_655   S
    Zr1    O29       3.61274  1_655   S
    N26    O30       2.64624      .   S
    Zr4    O30       3.78441  1_455   S
    N26    O31       3.09194      .   S
    Zr1    O31       4.04951  1_565   S
    N26    O32       2.88497      .   S
    Zr4    O32       3.61705  1_455   S
    N33    O34       3.09077  1_556   S
    Zr2    O34       4.04784  1_545   S
    N33    O35       2.88356      .   S
    Zr6    O35       3.61477      .   S
    N33    O36       2.64482      .   S
    Zr6    O36       3.78218      .   S
    N33    O37       3.09087      .   S
    Zr6    O37       4.04797  1_565   S
    N33    O38       2.88361  1_556   S
    Zr2    O38       3.61484      .   S
    N33    O39       2.64485  1_556   S
    Zr2    O39       3.78225      .   S
    N40    O41       3.09080      .   S
    Zr5    O41       4.04801  1_545   S
    N40    O42       2.88353      .   S
    Zr0    O42       3.61491      .   S
    N40    O43       3.09088      .   S
    Zr0    O43       4.04811  1_565   S
    N40    O44       2.88358      .   S
    Zr5    O44       3.61485      .   S
    N40    O45       2.64483      .   S
    Zr5    O45       3.78224      .   S
    N40    O46       2.64486      .   S
    Zr0    O46       3.78222      .   S
    N47    O48       2.46572      .   S
    Zr7    O48       2.49564      .   S
    N47    O49       4.83256      .   S
    Zr6    O49       4.60329      .   S
    N47    O50       3.57867      .   S
    Zr2    O50       4.79441  1_554   S
    N47    O51       3.42121      .   S
    Zr1    O51       4.38828      .   S
    N47    O52       1.83368      .   S
    Zr7    O52       3.02588      .   S
    N53    O54       3.42132      .   S
    Zr7    O54       4.38846      .   S
    N53    O55       4.83256      .   S
    Zr1    O55       4.60333  1_655   S
    N53    O56       1.83367      .   S
    Zr0    O56       3.02562      .   S
    N53    O57       2.46570      .   S
    Zr0    O57       2.49545      .   S
    N53    O58       3.57864      .   S
    Zr4    O58       4.79455      .   S
    N59    O60       2.64478      .   S
    Zr7    O60       3.78221      .   S
    N59    O61       3.09079  1_556   S
    Zr3    O61       4.04794  1_545   S
    N59    O62       2.88356      .   S
    Zr7    O62       3.61476      .   S
    N59    O63       2.64489  1_556   S
    Zr3    O63       3.78231      .   S
    N59    O64       3.09086      .   S
    Zr7    O64       4.04801  1_565   S
    N59    O65       2.88364  1_556   S
    Zr3    O65       3.61491      .   S
    N66    O67       2.46571      .   S
    Zr6    O67       2.49554      .   S
    N66    O68       3.42127      .   S
    Zr0    O68       4.38842      .   S
    N66    O69       3.57860  1_455   S
    Zr3    O69       4.79445  1_554   S
    N66    O70       4.83253  1_455   S
    Zr7    O70       4.60326      .   S
    N66    O71       1.83366      .   S
    Zr6    O71       3.02580      .   S
    N72    O73       1.83365      .   S
    Zr2    O73       3.02580      .   S
    N72    O74       4.83246      .   S
    Zr3    O74       4.60321      .   S
    N72    O75       3.42121      .   S
    Zr4    O75       4.38873      .   S
    N72    O76       2.46570      .   S
    Zr2    O76       2.49554      .   S
    N72    O77       3.57844      .   S
    Zr7    O77       4.79433  1_556   S
    N78    O79       1.83364      .   S
    Zr4    O79       3.02570      .   S
    N78    O80       3.57868      .   S
    Zr0    O80       4.79461      .   S
    N78    O81       2.46570      .   S
    Zr4    O81       2.49545      .   S
    N78    O82       3.42129      .   S
    Zr3    O82       4.38845  1_655   S
    N78    O83       4.83250      .   S
    Zr5    O83       4.60327      .   S
