# CIF file generated by openbabel 2.4.90, see http://openbabel.sf.net
data_I
_chemical_name_common ''
_cell_length_a 12.396
_cell_length_b 20.153
_cell_length_c 20.225
_cell_angle_alpha 102.717
_cell_angle_beta 94.698
_cell_angle_gamma 94.474
_space_group_name_H-M_alt 'P 1'
_space_group_name_Hall 'P 1'
loop_
    _symmetry_equiv_pos_as_xyz
    x,y,z
loop_
    _atom_site_label
    _atom_site_type_symbol
    _atom_site_fract_x
    _atom_site_fract_y
    _atom_site_fract_z
    _atom_site_occupancy
    N0      N    0.37633   0.74741   0.19594   1.000
    N1      N    0.30974   0.99572   0.89911   1.000
    N2      N    0.14803   0.27220   0.37289   1.000
    N3      N    0.46079   0.39295   0.87551   1.000
    N4      N    0.96328   0.99456   0.28306   1.000
    N5      N    0.04294   0.52415   0.06521   1.000
    N6      N    0.54283   0.06506   0.52423   1.000
    N7      N    0.96100   0.87576   0.39240   1.000
    N8      N    0.46342   0.28324   0.99392   1.000
    N9      N    0.64824   0.37241   0.27171   1.000
    N10     N    0.80964   0.90013   0.99530   1.000
    N11     N    0.87617   0.19700   0.74632   1.000
    Zr12    Zr   0.91674   0.20002   0.92677   1.000
    O13     O    0.90397   0.19917   0.86848   1.000
    O14     O    0.87903   0.11636   0.94788   1.000
    O15     O    0.07335   0.22244   0.94552   1.000
    O16     O    0.79185   0.23056   0.94683   1.000
    Zr17    Zr   0.71088   0.63648   0.13205   1.000
    O18     O    0.58598   0.67722   0.15570   1.000
    O19     O    0.83511   0.59542   0.10744   1.000
    Zr20    Zr   0.50880   0.08533   0.34984   1.000
    O21     O    0.35237   0.06008   0.33112   1.000
    O22     O    0.63459   0.05385   0.32903   1.000
    O23     O    0.51971   0.07886   0.40622   1.000
    O24     O    0.54598   0.16860   0.32859   1.000
    Zr25    Zr   0.21083   0.13228   0.63585   1.000
    O26     O    0.33505   0.10755   0.59507   1.000
    O27     O    0.08588   0.15622   0.67641   1.000
    Zr28    Zr   0.00878   0.34957   0.08580   1.000
    O29     O    0.85240   0.33094   0.06013   1.000
    O30     O    0.01977   0.40600   0.07923   1.000
    O31     O    0.04586   0.32853   0.16905   1.000
    O32     O    0.13467   0.32883   0.05416   1.000
    Zr33    Zr   0.41679   0.92793   0.19818   1.000
    O34     O    0.37912   0.94901   0.11480   1.000
    O35     O    0.40405   0.86963   0.19759   1.000
    O36     O    0.57336   0.94667   0.22110   1.000
    O37     O    0.29183   0.94787   0.22909   1.000
    O38     O    0.23983   0.09088   0.71024   1.000
    O39     O    0.19107   0.17462   0.56162   1.000
    O40     O    0.28388   0.20787   0.70437   1.000
    O41     O    0.13798   0.05786   0.56624   1.000
    O42     O    0.69114   0.56186   0.17424   1.000
    O43     O    0.73984   0.71100   0.09066   1.000
    O44     O    0.63797   0.56683   0.05762   1.000
    O45     O    0.78398   0.70483   0.20756   1.000
loop_
    _geom_bond_atom_site_label_1
    _geom_bond_atom_site_label_2
    _geom_bond_distance
    _geom_bond_site_symmetry_2
    _ccdc_geom_bond_type
    Zr12   O13       1.17274      .   S
    N11    O13       2.45668      .   S
    Zr12   O14       1.86283      .   S
    N10    O14       4.69454  1_565   S
    Zr12   O15       1.94523  1_655   S
    N8     O15       4.85929      .   S
    Zr12   O16       1.75551      .   S
    N8     O16       4.41283      .   S
    Zr17   O18       1.85657      .   S
    N0     O18       3.13539      .   S
    Zr17   O19       1.85656      .   S
    N5     O19       3.13486  1_455   S
    Zr20   O21       1.95025      .   S
    N4     O21       4.86044  1_665   S
    Zr20   O22       1.77627      .   S
    N4     O22       4.44806  1_565   S
    Zr20   O23       1.17410      .   S
    N6     O23       2.45946      .   S
    Zr20   O24       1.85540      .   S
    N9     O24       4.61611      .   S
    Zr25   O26       1.85643      .   S
    N6     O26       3.13498      .   S
    Zr25   O27       1.85876      .   S
    N11    O27       3.13954  1_655   S
    Zr28   O29       1.95035  1_455   S
    N8     O29       4.85995  1_556   S
    Zr28   O30       1.17260      .   S
    N5     O30       2.45683      .   S
    Zr28   O31       1.85574      .   S
    N2     O31       4.61732      .   S
    Zr28   O32       1.77965      .   S
    N8     O32       4.45423  1_556   S
    Zr33   O34       1.86006      .   S
    N1     O34       4.68776  1_556   S
    Zr33   O35       1.17057      .   S
    N0     O35       2.45277      .   S
    Zr33   O36       1.94566      .   S
    N4     O36       4.85921      .   S
    Zr33   O37       1.75973      .   S
    N4     O37       4.42013  1_655   S
    Zr25   O38       1.89733      .   S
    N1     O38       4.68648  1_565   S
    Zr25   O39       1.89156      .   S
    N2     O39       4.67511      .   S
    Zr25   O40       1.92631      .   S
    N3     O40       4.74327      .   S
    Zr25   O41       1.92297      .   S
    N7     O41       4.73730  1_665   S
    N9     O42       4.68128      .   S
    Zr17   O42       1.89509      .   S
    Zr17   O43       1.89829      .   S
    N10    O43       4.68955  1_556   S
    Zr17   O44       1.92405      .   S
    N3     O44       4.73923  1_556   S
    Zr17   O45       1.92436      .   S
    N7     O45       4.73977      .   S
