# CIF file generated by openbabel 2.4.90, see http://openbabel.sf.net
data_I
_chemical_name_common ''
_cell_length_a 12.396
_cell_length_b 20.153
_cell_length_c 20.225
_cell_angle_alpha 102.717
_cell_angle_beta 94.698
_cell_angle_gamma 94.474
_space_group_name_H-M_alt 'P 1'
_space_group_name_Hall 'P 1'
loop_
    _symmetry_equiv_pos_as_xyz
    x,y,z
loop_
    _atom_site_label
    _atom_site_type_symbol
    _atom_site_fract_x
    _atom_site_fract_y
    _atom_site_fract_z
    _atom_site_occupancy
    N0      N    0.37633   0.74741   0.19594   1.000
    N1      N    0.30974   0.99572   0.89911   1.000
    N2      N    0.14803   0.27220   0.37289   1.000
    N3      N    0.46079   0.39295   0.87551   1.000
    N4      N    0.96328   0.99456   0.28306   1.000
    N5      N    0.04294   0.52415   0.06521   1.000
    N6      N    0.54283   0.06506   0.52423   1.000
    N7      N    0.96100   0.87576   0.39240   1.000
    N8      N    0.46342   0.28324   0.99392   1.000
    N9      N    0.64824   0.37241   0.27171   1.000
    N10     N    0.80964   0.90013   0.99530   1.000
    N11     N    0.87617   0.19700   0.74632   1.000
    Zr12    Zr   0.91674   0.20002   0.92677   1.000
    O13     O    0.90397   0.19917   0.86848   1.000
    O14     O    0.87903   0.11636   0.94788   1.000
    O15     O    0.07335   0.22244   0.94552   1.000
    O16     O    0.79185   0.23056   0.94683   1.000
    Zr17    Zr   0.71088   0.63648   0.13205   1.000
    O18     O    0.76239   0.71081   0.21205   1.000
    O19     O    0.66912   0.56766   0.17802   1.000
    O20     O    0.71872   0.71758   0.09519   1.000
    O21     O    0.58598   0.67722   0.15570   1.000
    O22     O    0.61657   0.57338   0.06164   1.000
    O23     O    0.65937   0.56029   0.05359   1.000
    O24     O    0.71315   0.55607   0.17046   1.000
    O25     O    0.76096   0.70442   0.08613   1.000
    O26     O    0.80557   0.69885   0.20306   1.000
    O27     O    0.83511   0.59542   0.10744   1.000
    Zr28    Zr   0.50880   0.08533   0.34984   1.000
    O29     O    0.35237   0.06008   0.33112   1.000
    O30     O    0.63459   0.05385   0.32903   1.000
    O31     O    0.51971   0.07886   0.40622   1.000
    O32     O    0.54598   0.16860   0.32859   1.000
    Zr33    Zr   0.21083   0.13228   0.63585   1.000
    O34     O    0.33505   0.10755   0.59507   1.000
    O35     O    0.30548   0.20336   0.69846   1.000
    O36     O    0.15940   0.05382   0.55978   1.000
    O37     O    0.26097   0.08634   0.70375   1.000
    O38     O    0.21313   0.17086   0.55594   1.000
    O39     O    0.08588   0.15622   0.67641   1.000
    O40     O    0.21868   0.09543   0.71673   1.000
    O41     O    0.16901   0.17837   0.56730   1.000
    O42     O    0.26227   0.21238   0.71028   1.000
    O43     O    0.11657   0.06190   0.57271   1.000
    Zr44    Zr   0.00878   0.34957   0.08580   1.000
    O45     O    0.85240   0.33094   0.06013   1.000
    O46     O    0.01977   0.40600   0.07923   1.000
    O47     O    0.04586   0.32853   0.16905   1.000
    O48     O    0.13467   0.32883   0.05416   1.000
    Zr49    Zr   0.41679   0.92793   0.19818   1.000
    O50     O    0.37912   0.94901   0.11480   1.000
    O51     O    0.40405   0.86963   0.19759   1.000
    O52     O    0.57336   0.94667   0.22110   1.000
    O53     O    0.29183   0.94787   0.22909   1.000
loop_
    _geom_bond_atom_site_label_1
    _geom_bond_atom_site_label_2
    _geom_bond_distance
    _geom_bond_site_symmetry_2
    _ccdc_geom_bond_type
    Zr12   O13       1.17274      .   S
    N11    O13       2.45668      .   S
    Zr12   O14       1.86283      .   S
    N10    O14       4.69454  1_565   S
    Zr12   O15       1.94523  1_655   S
    N8     O15       4.85929      .   S
    Zr12   O16       1.75551      .   S
    N8     O16       4.41283      .   S
    Zr17   O18       1.97088      .   S
    N7     O18       4.72554      .   S
    Zr17   O19       1.89506      .   S
    N9     O19       4.72688      .   S
    Zr17   O20       1.93904      .   S
    N10    O20       4.67816  1_556   S
    Zr17   O21       1.85657      .   S
    N0     O21       3.13539      .   S
    Zr17   O22       1.92602      .   S
    N3     O22       4.77591  1_556   S
    Zr17   O23       1.97275      .   S
    N3     O23       4.72321  1_556   S
    Zr17   O24       1.94636      .   S
    N9     O24       4.65641      .   S
    Zr17   O25       1.90896      .   S
    N10    O25       4.72181  1_556   S
    Zr17   O26       1.92853      .   S
    N7     O26       4.77465      .   S
    Zr17   O27       1.85656      .   S
    N5     O27       3.13486  1_455   S
    Zr28   O29       1.95025      .   S
    N4     O29       4.86044  1_665   S
    Zr28   O30       1.77627      .   S
    N4     O30       4.44806  1_565   S
    Zr28   O31       1.17410      .   S
    N6     O31       2.45946      .   S
    Zr28   O32       1.85540      .   S
    N9     O32       4.61611      .   S
    Zr33   O34       1.85643      .   S
    N6     O34       3.13498      .   S
    Zr33   O35       1.93071      .   S
    N3     O35       4.77777      .   S
    Zr33   O36       1.97103      .   S
    N7     O36       4.72184  1_665   S
    Zr33   O37       1.90769      .   S
    N1     O37       4.71915  1_565   S
    Zr33   O38       1.94293      .   S
    N2     O38       4.65008      .   S
    Zr33   O39       1.85876      .   S
    N11    O39       3.13954  1_655   S
    Zr33   O40       1.93836      .   S
    N1     O40       4.67468  1_565   S
    Zr33   O41       1.89144      .   S
    N2     O41       4.72087      .   S
    Zr33   O42       1.97252      .   S
    N3     O42       4.72940      .   S
    Zr33   O43       1.92557      .   S
    N7     O43       4.77340  1_665   S
    Zr44   O45       1.95035  1_455   S
    N8     O45       4.85995  1_556   S
    Zr44   O46       1.17260      .   S
    N5     O46       2.45683      .   S
    Zr44   O47       1.85574      .   S
    N2     O47       4.61732      .   S
    Zr44   O48       1.77965      .   S
    N8     O48       4.45423  1_556   S
    Zr49   O50       1.86006      .   S
    N1     O50       4.68776  1_556   S
    Zr49   O51       1.17057      .   S
    N0     O51       2.45277      .   S
    Zr49   O52       1.94566      .   S
    N4     O52       4.85921      .   S
    Zr49   O53       1.75973      .   S
    N4     O53       4.42013  1_655   S
