# CIF file generated by openbabel 2.4.90, see http://openbabel.sf.net
data_I
_chemical_name_common ''
_cell_length_a 5.945
_cell_length_b 7.474
_cell_length_c 15.5861
_cell_angle_alpha 89.787
_cell_angle_beta 86.3205
_cell_angle_gamma 89.557
_space_group_name_H-M_alt 'P 1'
_space_group_name_Hall 'P 1'
loop_
    _symmetry_equiv_pos_as_xyz
    x,y,z
loop_
    _atom_site_label
    _atom_site_type_symbol
    _atom_site_fract_x
    _atom_site_fract_y
    _atom_site_fract_z
    _atom_site_occupancy
    C0      C    0.52593   0.66850   0.82829   1.000
    C1      C    0.08463   0.75323   0.35681   1.000
    C2      C    0.58423   0.25953   0.85832   1.000
    C3      C    0.02855   0.34537   0.32932   1.000
    C4      C    0.91532   0.26239   0.64322   1.000
    C5      C    0.47402   0.34712   0.17175   1.000
    C6      C    0.97139   0.67024   0.67071   1.000
    C7      C    0.41572   0.75608   0.14172   1.000
