# CIF file generated by openbabel 2.4.90, see http://openbabel.sf.net
data_I
_chemical_name_common ''
_cell_length_a 5.945
_cell_length_b 7.474
_cell_length_c 15.5861
_cell_angle_alpha 89.787
_cell_angle_beta 86.3205
_cell_angle_gamma 89.557
_space_group_name_H-M_alt 'P 1'
_space_group_name_Hall 'P 1'
loop_
    _symmetry_equiv_pos_as_xyz
    x,y,z
loop_
    _atom_site_label
    _atom_site_type_symbol
    _atom_site_fract_x
    _atom_site_fract_y
    _atom_site_fract_z
    _atom_site_occupancy
    Zr0     Zr   0.74925   0.00013   0.75021   1.000
    Zr1     Zr   0.25069   0.01549   0.24982   1.000
    Zr2     Zr   0.25001   0.39880   0.74992   1.000
    Zr3     Zr   0.74998   0.61682   0.25011   1.000
    Zr4     Zr   0.52593   0.66850   0.82829   1.000
    Zr5     Zr   0.08463   0.75323   0.35681   1.000
    Zr6     Zr   0.58423   0.25953   0.85832   1.000
    Zr7     Zr   0.02855   0.34537   0.32932   1.000
    Zr8     Zr   0.91532   0.26239   0.64322   1.000
    Zr9     Zr   0.47402   0.34712   0.17175   1.000
    Zr10    Zr   0.97139   0.67024   0.67071   1.000
    Zr11    Zr   0.41572   0.75608   0.14172   1.000
    Zr12    Zr   0.77291   0.17994   0.84980   1.000
    Zr13    Zr   0.09135   0.18281   0.33196   1.000
    Zr14    Zr   0.41946   0.21838   0.81283   1.000
    Zr15    Zr   0.98936   0.42879   0.26019   1.000
    Zr16    Zr   0.58814   0.83034   0.83033   1.000
    Zr17    Zr   0.27401   0.82933   0.34748   1.000
    Zr18    Zr   0.48664   0.58577   0.75941   1.000
    Zr19    Zr   0.91904   0.79699   0.31176   1.000
    Zr20    Zr   0.90859   0.83280   0.66808   1.000
    Zr21    Zr   0.22703   0.83568   0.15024   1.000
    Zr22    Zr   0.01060   0.58683   0.73984   1.000
    Zr23    Zr   0.58049   0.79724   0.18720   1.000
    Zr24    Zr   0.72594   0.18628   0.65256   1.000
    Zr25    Zr   0.41181   0.18528   0.16970   1.000
    Zr26    Zr   0.08091   0.21863   0.68827   1.000
    Zr27    Zr   0.51332   0.42985   0.24063   1.000
    O28     O    0.32138   0.79588   0.14598   1.000
    O29     O    0.49810   0.77666   0.16446   1.000
    O30     O    0.23886   0.92558   0.20003   1.000
    O31     O    0.44291   0.26620   0.17073   1.000
    O32     O    0.33125   0.10038   0.20976   1.000
    O33     O    0.49367   0.38849   0.20619   1.000
    O34     O    0.66523   0.70703   0.21865   1.000
    O35     O    0.63165   0.52333   0.24537   1.000
    O36     O    0.17102   0.09915   0.29089   1.000
    O37     O    0.26235   0.92241   0.29865   1.000
    O38     O    0.86967   0.52281   0.25515   1.000
    O39     O    0.83451   0.70690   0.28093   1.000
    O40     O    0.00896   0.38708   0.29476   1.000
    O41     O    0.00183   0.77511   0.33429   1.000
    O42     O    0.05995   0.26409   0.33064   1.000
    O43     O    0.17932   0.79128   0.35215   1.000
    O44     O    0.82063   0.22434   0.64789   1.000
    O45     O    0.99811   0.24051   0.66575   1.000
    O46     O    0.73760   0.09321   0.70138   1.000
    O47     O    0.93999   0.75152   0.66940   1.000
    O48     O    0.82892   0.91647   0.70915   1.000
    O49     O    0.99100   0.62853   0.70528   1.000
    O50     O    0.16546   0.30871   0.71910   1.000
    O51     O    0.13030   0.49281   0.74488   1.000
    O52     O    0.36833   0.49228   0.75467   1.000
    O53     O    0.33474   0.30859   0.78138   1.000
    O54     O    0.66870   0.91524   0.79027   1.000
    O55     O    0.76108   0.09003   0.80001   1.000
    O56     O    0.50629   0.62713   0.79385   1.000
    O57     O    0.50185   0.23896   0.83558   1.000
    O58     O    0.55704   0.74942   0.82931   1.000
    O59     O    0.67857   0.21974   0.85406   1.000
    N60     N    0.49997   0.50781   0.00002   1.000
    O61     O    0.50774   0.56566   0.93592   1.000
    O62     O    0.46766   0.59817   0.05325   1.000
    O63     O    0.49221   0.44996   0.06412   1.000
    O64     O    0.53229   0.41744   0.94679   1.000
    N65     N    0.99997   0.50781   0.50002   1.000
    O66     O    0.03247   0.59709   0.44625   1.000
    O67     O    0.96748   0.41852   0.55378   1.000
    O68     O    0.00882   0.44919   0.43632   1.000
    O69     O    0.99112   0.56642   0.56372   1.000
loop_
    _geom_bond_atom_site_label_1
    _geom_bond_atom_site_label_2
    _geom_bond_distance
    _geom_bond_site_symmetry_2
    _ccdc_geom_bond_type
    Zr11   O28       0.63265      .   S
    Zr21   O28       0.63265      .   S
    Zr11   O29       0.64265      .   S
    Zr23   O29       0.64265      .   S
    Zr21   O30       1.03456      .   S
    Zr1    O30       1.03456  1_545   S
    Zr25   O31       0.63435      .   S
    Zr9    O31       0.63435      .   S
    Zr25   O32       0.99255      .   S
    Zr1    O32       0.99255      .   S
    Zr9    O33       0.63813      .   S
    Zr27   O33       0.63813      .   S
    Zr23   O34       0.98627      .   S
    Zr3    O34       0.98627      .   S
    Zr27   O35       1.00158      .   S
    Zr3    O35       1.00158      .   S
    Zr1    O36       0.99223      .   S
    Zr13   O36       0.99223      .   S
    Zr1    O37       1.03442  1_545   S
    Zr17   O37       1.03442      .   S
    Zr3    O38       1.00263      .   S
    Zr15   O38       1.00263      .   S
    Zr3    O39       0.98760      .   S
    Zr19   O39       0.98760      .   S
    Zr15   O40       0.63817  1_655   S
    Zr7    O40       0.63817      .   S
    Zr19   O41       0.64249  1_655   S
    Zr5    O41       0.64249      .   S
    Zr7    O42       0.63480      .   S
    Zr13   O42       0.63480      .   S
    Zr17   O43       0.63256      .   S
    Zr5    O43       0.63256      .   S
    Zr8    O44       0.63256      .   S
    Zr24   O44       0.63256      .   S
    Zr8    O45       0.64249      .   S
    Zr26   O45       0.64249  1_455   S
    Zr24   O46       1.03442      .   S
    Zr0    O46       1.03442      .   S
    Zr20   O47       0.63479      .   S
    Zr10   O47       0.63479      .   S
    Zr20   O48       0.99223      .   S
    Zr0    O48       0.99223  1_545   S
    Zr10   O49       0.63817      .   S
    Zr22   O49       0.63817  1_455   S
    Zr26   O50       0.98764      .   S
    Zr2    O50       0.98764      .   S
    Zr22   O51       1.00268      .   S
    Zr2    O51       1.00268      .   S
    Zr2    O52       1.00153      .   S
    Zr18   O52       1.00153      .   S
    Zr2    O53       0.98623      .   S
    Zr14   O53       0.98623      .   S
    Zr0    O54       0.99257  1_545   S
    Zr16   O54       0.99257      .   S
    Zr0    O55       1.03456      .   S
    Zr12   O55       1.03456      .   S
    Zr18   O56       0.63813      .   S
    Zr4    O56       0.63813      .   S
    Zr14   O57       0.64265      .   S
    Zr6    O57       0.64265      .   S
    Zr4    O58       0.63436      .   S
    Zr16   O58       0.63436      .   S
    Zr12   O59       0.63265      .   S
    Zr6    O59       0.63265      .   S
    N60    O61       1.08551  1_554   S
    Zr4    O61       1.83981      .   S
    N60    O62       1.07843      .   S
    Zr11   O62       1.82802      .   S
    N60    O63       1.08551      .   S
    Zr9    O63       1.83981      .   S
    N60    O64       1.07843  1_554   S
    Zr6    O64       1.82801      .   S
    N65    O66       1.07791  1_655   S
    Zr5    O66       1.82738      .   S
    N65    O67       1.07791      .   S
    Zr8    O67       1.82738      .   S
    N65    O68       1.08471  1_655   S
    Zr7    O68       1.83844      .   S
    N65    O69       1.08471      .   S
    Zr10   O69       1.83844      .   S
