# CIF file generated by openbabel 2.4.90, see http://openbabel.sf.net
data_I
_chemical_name_common ''
_cell_length_a 9.647
_cell_length_b 19.512
_cell_length_c 23.029
_cell_angle_alpha 89.998
_cell_angle_beta 93.397
_cell_angle_gamma 89.999
_space_group_name_H-M_alt 'P 1'
_space_group_name_Hall 'P 1'
loop_
    _symmetry_equiv_pos_as_xyz
    x,y,z
loop_
    _atom_site_label
    _atom_site_type_symbol
    _atom_site_fract_x
    _atom_site_fract_y
    _atom_site_fract_z
    _atom_site_occupancy
    H0      H    0.39483   0.02886   0.87074   1.000
    H1      H    0.39483   0.52886   0.87074   1.000
    H2      H    0.89484   0.02886   0.87074   1.000
    H3      H    0.89485   0.52887   0.87074   1.000
    H4      H    0.32763   0.32340   0.91079   1.000
    H5      H    0.32764   0.82341   0.91079   1.000
    H6      H    0.82764   0.32340   0.91079   1.000
    H7      H    0.82765   0.82341   0.91079   1.000
    H8      H    0.48162   0.36843   0.68305   1.000
    H9      H    0.48164   0.86843   0.68305   1.000
    H10     H    0.98163   0.36843   0.68305   1.000
    H11     H    0.98165   0.86843   0.68305   1.000
    H12     H    0.05034   0.38877   0.78525   1.000
    H13     H    0.05036   0.88877   0.78526   1.000
    H14     H    0.55034   0.38877   0.78520   1.000
    H15     H    0.55037   0.88877   0.78526   1.000
    H16     H    0.26169   0.05891   0.78749   1.000
    H17     H    0.26170   0.55891   0.78749   1.000
    H18     H    0.76171   0.05891   0.78749   1.000
    H19     H    0.76172   0.55891   0.78749   1.000
    H20     H    0.18964   0.03690   0.68530   1.000
    H21     H    0.18964   0.53691   0.68530   1.000
    H22     H    0.68966   0.03691   0.68530   1.000
    H23     H    0.68966   0.53691   0.68534   1.000
    H24     H    0.14049   0.43823   0.86707   1.000
    H25     H    0.14049   0.93824   0.86708   1.000
    H26     H    0.64050   0.43823   0.86707   1.000
    H27     H    0.64051   0.93823   0.86707   1.000
    H28     H    0.07938   0.48227   0.92643   1.000
    H29     H    0.07938   0.98228   0.92643   1.000
    H30     H    0.57938   0.48227   0.92643   1.000
    H31     H    0.57939   0.98228   0.92643   1.000
    H32     H    0.10524   0.27886   0.62922   1.000
    H33     H    0.10525   0.77886   0.62920   1.000
    H34     H    0.60526   0.27886   0.62922   1.000
    H35     H    0.60527   0.77886   0.62920   1.000
    H36     H    0.17250   0.07342   0.58917   1.000
    H37     H    0.17250   0.57342   0.58917   1.000
    H38     H    0.67251   0.07341   0.58917   1.000
    H39     H    0.67251   0.57342   0.58917   1.000
    H40     H    0.01848   0.11843   0.81692   1.000
    H41     H    0.01848   0.61844   0.81692   1.000
    H42     H    0.51849   0.11843   0.81692   1.000
    H43     H    0.51850   0.61844   0.81692   1.000
    H44     H    0.44975   0.13876   0.71472   1.000
    H45     H    0.44976   0.63877   0.71472   1.000
    H46     H    0.94976   0.13876   0.71472   1.000
    H47     H    0.94976   0.63877   0.71472   1.000
    H48     H    0.23837   0.30891   0.71246   1.000
    H49     H    0.23838   0.80891   0.71246   1.000
    H50     H    0.73839   0.30890   0.71246   1.000
    H51     H    0.73840   0.80891   0.71246   1.000
    H52     H    0.31044   0.28691   0.81461   1.000
    H53     H    0.31045   0.78691   0.81461   1.000
    H54     H    0.81046   0.28691   0.81461   1.000
    H55     H    0.81047   0.78691   0.81461   1.000
    H56     H    0.35961   0.18821   0.63289   1.000
    H57     H    0.35962   0.68822   0.63289   1.000
    H58     H    0.85962   0.18821   0.63289   1.000
    H59     H    0.85962   0.68822   0.63289   1.000
    H60     H    0.42070   0.23227   0.57353   1.000
    H61     H    0.42071   0.73227   0.57353   1.000
    H62     H    0.92070   0.23227   0.57353   1.000
    H63     H    0.92072   0.73227   0.57353   1.000
    H64     H    0.10523   0.47113   0.12923   1.000
    H65     H    0.10524   0.97113   0.12920   1.000
    H66     H    0.60524   0.47114   0.12923   1.000
    H67     H    0.60526   0.97113   0.12920   1.000
    C68     C    0.48694   0.88454   0.91133   1.000
    C69     C    0.16799   0.20158   0.82318   1.000
    C70     C    0.16800   0.70159   0.82318   1.000
    C71     C    0.66801   0.20158   0.82318   1.000
    H72     H    0.17245   0.17659   0.08918   1.000
    H73     H    0.17245   0.67659   0.08918   1.000
    H74     H    0.67246   0.17659   0.08918   1.000
    H75     H    0.67247   0.67659   0.08918   1.000
    H76     H    0.01849   0.13157   0.31693   1.000
    H77     H    0.01850   0.63157   0.31693   1.000
    H78     H    0.51850   0.13157   0.31693   1.000
    H79     H    0.51851   0.63158   0.31693   1.000
    H80     H    0.44974   0.11123   0.21473   1.000
    H81     H    0.44975   0.61124   0.21473   1.000
    H82     H    0.94976   0.11123   0.21473   1.000
    H83     H    0.94976   0.61123   0.21473   1.000
    H84     H    0.23837   0.44109   0.21248   1.000
    H85     H    0.23839   0.94109   0.21248   1.000
    H86     H    0.73839   0.44109   0.21248   1.000
    H87     H    0.73841   0.94109   0.21248   1.000
    H88     H    0.31046   0.46309   0.31462   1.000
    H89     H    0.31047   0.96309   0.31462   1.000
    H90     H    0.81048   0.46309   0.31462   1.000
    H91     H    0.81049   0.96309   0.31462   1.000
    H92     H    0.35959   0.06177   0.13291   1.000
    H93     H    0.35959   0.56178   0.13291   1.000
    H94     H    0.85960   0.06177   0.13290   1.000
    H95     H    0.85960   0.56178   0.13291   1.000
    C96     C    0.45530   0.04852   0.11168   1.000
    C97     C    0.45529   0.54853   0.11168   1.000
    C98     C    0.95531   0.04852   0.11168   1.000
    C99     C    0.95531   0.54853   0.11168   1.000
    C100    C    0.51317   0.11546   0.08864   1.000
    H101    H    0.42068   0.01772   0.07355   1.000
    H102    H    0.42069   0.51773   0.07355   1.000
    H103    H    0.92070   0.01772   0.07355   1.000
    H104    H    0.92070   0.51773   0.07355   1.000
    H105    H    0.39487   0.22114   0.37076   1.000
    H106    H    0.39488   0.72115   0.37076   1.000
    H107    H    0.89487   0.22114   0.37076   1.000
    H108    H    0.89489   0.72115   0.37076   1.000
    H109    H    0.32769   0.42661   0.41080   1.000
    H110    H    0.32772   0.92661   0.41080   1.000
    H111    H    0.82770   0.42661   0.41080   1.000
    H112    H    0.82773   0.92661   0.41080   1.000
    H113    H    0.48158   0.38157   0.18305   1.000
    H114    H    0.48159   0.88157   0.18305   1.000
    H115    H    0.98159   0.38157   0.18305   1.000
    H116    H    0.98160   0.88157   0.18305   1.000
    H117    H    0.05033   0.36124   0.28525   1.000
    H118    H    0.05034   0.86125   0.28525   1.000
    H119    H    0.55034   0.36124   0.28525   1.000
    H120    H    0.55035   0.86124   0.28525   1.000
    H121    H    0.26171   0.19109   0.28750   1.000
    H122    H    0.26172   0.69110   0.28752   1.000
    H123    H    0.76173   0.19109   0.28750   1.000
    H124    H    0.76174   0.69110   0.28752   1.000
    H125    H    0.18962   0.21309   0.18537   1.000
    H126    H    0.18963   0.71310   0.18537   1.000
    H127    H    0.68964   0.21309   0.18537   1.000
    H128    H    0.68965   0.71309   0.18537   1.000
    H129    H    0.14052   0.31177   0.36700   1.000
    H130    H    0.14054   0.81177   0.36706   1.000
    H131    H    0.64053   0.31177   0.36706   1.000
    H132    H    0.64055   0.81178   0.36706   1.000
    H133    H    0.07944   0.26772   0.42643   1.000
    H134    H    0.07947   0.76773   0.42643   1.000
    H135    H    0.57946   0.26772   0.42643   1.000
    H136    H    0.57948   0.76773   0.42642   1.000
    C137    C    0.33210   0.45158   0.67678   1.000
    C138    C    0.33212   0.95159   0.67678   1.000
    C139    C    0.83211   0.45158   0.67678   1.000
    C140    C    0.83214   0.95159   0.67678   1.000
    C141    C    0.43294   0.41021   0.70569   1.000
    C142    C    0.43296   0.91022   0.70569   1.000
    C143    C    0.93295   0.41021   0.70569   1.000
    C144    C    0.93298   0.91022   0.70569   1.000
    C145    C    0.47199   0.42184   0.76394   1.000
    C146    C    0.47201   0.92184   0.76390   1.000
    C147    C    0.97200   0.42183   0.76394   1.000
    C148    C    0.97202   0.92184   0.76390   1.000
    C149    C    0.41249   0.47633   0.79445   1.000
    C150    C    0.41250   0.97633   0.79445   1.000
    C151    C    0.91251   0.47633   0.79445   1.000
    C152    C    0.91252   0.97633   0.79445   1.000
    C153    C    0.30977   0.01709   0.76459   1.000
    C154    C    0.30978   0.51709   0.76459   1.000
    C155    C    0.80979   0.01709   0.76459   1.000
    C156    C    0.80980   0.51709   0.76459   1.000
    C157    C    0.26954   0.50482   0.70678   1.000
    C158    C    0.26956   0.00000   0.70678   1.000
    C159    C    0.76956   0.50482   0.70670   1.000
    C160    C    0.76958   0.00000   0.70670   1.000
    C161    C    0.04478   0.45147   0.88800   1.000
    C162    C    0.04479   0.95148   0.88830   1.000
    C163    C    0.54479   0.45147   0.88800   1.000
    C164    C    0.54480   0.95148   0.88830   1.000
    C165    C    0.98692   0.38454   0.91133   1.000
    C166    C    0.98693   0.88454   0.91133   1.000
    C167    C    0.48693   0.38454   0.91133   1.000
    C168    C    0.66801   0.70159   0.82318   1.000
    C169    C    0.06715   0.16021   0.79420   1.000
    C170    C    0.06716   0.66022   0.79427   1.000
    C171    C    0.56716   0.16021   0.79427   1.000
    C172    C    0.56717   0.66022   0.79427   1.000
    C173    C    0.02809   0.17184   0.73602   1.000
    C174    C    0.02810   0.67184   0.73602   1.000
    C175    C    0.52810   0.17184   0.73602   1.000
    C176    C    0.52811   0.67184   0.73602   1.000
    C177    C    0.08758   0.22633   0.70550   1.000
    C178    C    0.08759   0.72633   0.70550   1.000
    C179    C    0.58760   0.22633   0.70551   1.000
    C180    C    0.58761   0.72633   0.70551   1.000
    C181    C    0.19029   0.26709   0.73537   1.000
    C182    C    0.19030   0.76710   0.73537   1.000
    C183    C    0.69031   0.26709   0.73537   1.000
    C184    C    0.69032   0.76710   0.73537   1.000
    C185    C    0.23054   0.25482   0.79318   1.000
    C186    C    0.23055   0.75483   0.79318   1.000
    C187    C    0.73056   0.25482   0.79318   1.000
    C188    C    0.73057   0.75482   0.79318   1.000
    C189    C    0.45531   0.20147   0.61160   1.000
    C190    C    0.45532   0.70148   0.61166   1.000
    C191    C    0.95532   0.20147   0.61166   1.000
    C192    C    0.95533   0.70147   0.61166   1.000
    C193    C    0.51320   0.13454   0.58863   1.000
    C194    C    0.51320   0.63454   0.58863   1.000
    C195    C    0.00000   0.13454   0.58863   1.000
    C196    C    0.00000   0.63454   0.58863   1.000
    C197    C    0.16801   0.04841   0.32319   1.000
    C198    C    0.16802   0.54842   0.32319   1.000
    C199    C    0.66803   0.04841   0.32319   1.000
    C200    C    0.66803   0.54842   0.32319   1.000
    C201    C    0.06716   0.08979   0.29420   1.000
    C202    C    0.06717   0.58979   0.29420   1.000
    C203    C    0.56718   0.08979   0.29420   1.000
    C204    C    0.56718   0.58979   0.29420   1.000
    C205    C    0.02809   0.07816   0.23604   1.000
    C206    C    0.02810   0.57817   0.23600   1.000
    C207    C    0.52811   0.07816   0.23604   1.000
    C208    C    0.52812   0.57817   0.23600   1.000
    C209    C    0.08758   0.02367   0.20553   1.000
    C210    C    0.08759   0.52367   0.20553   1.000
    C211    C    0.58760   0.02367   0.20553   1.000
    C212    C    0.58760   0.52367   0.20553   1.000
    C213    C    0.19030   0.48291   0.23538   1.000
    C214    C    0.19031   0.98291   0.23538   1.000
    C215    C    0.69032   0.48291   0.23538   1.000
    C216    C    0.69033   0.98291   0.23538   1.000
    C217    C    0.23055   0.99518   0.29300   1.000
    C218    C    0.23056   0.49518   0.29300   1.000
    C219    C    0.73057   0.99518   0.29319   1.000
    C220    C    0.73057   0.49518   0.29319   1.000
    C221    C    0.51317   0.61546   0.08864   1.000
    C222    C    0.00000   0.11546   0.08864   1.000
    C223    C    0.00000   0.61546   0.08864   1.000
    C224    C    0.33207   0.29841   0.17679   1.000
    C225    C    0.33208   0.79842   0.17679   1.000
    C226    C    0.83209   0.29841   0.17679   1.000
    C227    C    0.83210   0.79842   0.17679   1.000
    C228    C    0.43291   0.33979   0.20569   1.000
    C229    C    0.43292   0.83979   0.20569   1.000
    C230    C    0.93293   0.33979   0.20500   1.000
    C231    C    0.93294   0.83979   0.20569   1.000
    C232    C    0.47198   0.32817   0.26390   1.000
    C233    C    0.47199   0.82817   0.26394   1.000
    C234    C    0.97200   0.32816   0.26390   1.000
    C235    C    0.97201   0.82817   0.26394   1.000
    C236    C    0.41250   0.27368   0.29446   1.000
    C237    C    0.41251   0.77368   0.29446   1.000
    C238    C    0.91251   0.27368   0.29446   1.000
    C239    C    0.91252   0.77368   0.29446   1.000
    C240    C    0.30978   0.23291   0.26461   1.000
    C241    C    0.30979   0.73292   0.26461   1.000
    C242    C    0.80980   0.23291   0.26461   1.000
    C243    C    0.80981   0.73291   0.26461   1.000
    C244    C    0.26953   0.24518   0.20600   1.000
    C245    C    0.26953   0.74518   0.20680   1.000
    C246    C    0.76954   0.24518   0.20679   1.000
    C247    C    0.76955   0.74518   0.20600   1.000
    C248    C    0.04482   0.29853   0.38830   1.000
    C249    C    0.04485   0.79853   0.38830   1.000
    C250    C    0.54484   0.29853   0.38830   1.000
    C251    C    0.54486   0.79853   0.38830   1.000
    C252    C    0.98698   0.36547   0.41134   1.000
    C253    C    0.98701   0.86547   0.41134   1.000
    C254    C    0.48699   0.36546   0.41134   1.000
    C255    C    0.48702   0.86547   0.41134   1.000
    N256    N    0.45215   0.49221   0.85107   1.000
    N257    N    0.45216   0.99222   0.85107   1.000
    N258    N    0.95217   0.49221   0.85107   1.000
    N259    N    0.95218   0.99222   0.85107   1.000
    N260    N    0.04791   0.24222   0.64889   1.000
    N261    N    0.04792   0.74222   0.64889   1.000
    N262    N    0.54793   0.24221   0.64889   1.000
    N263    N    0.54794   0.74222   0.64889   1.000
    N264    N    0.04791   0.00778   0.14891   1.000
    N265    N    0.04791   0.50779   0.14891   1.000
    N266    N    0.54792   0.00778   0.14891   1.000
    N267    N    0.54792   0.50779   0.14891   1.000
    N268    N    0.45218   0.25779   0.35108   1.000
    N269    N    0.45219   0.75780   0.35108   1.000
    N270    N    0.95219   0.25779   0.35108   1.000
    N271    N    0.95221   0.75780   0.35108   1.000
    O272    O    0.35663   0.37160   0.89514   1.000
    O273    O    0.35664   0.87160   0.89514   1.000
    O274    O    0.85664   0.37160   0.89514   1.000
    O275    O    0.85665   0.87160   0.89514   1.000
    O276    O    0.06400   0.34720   0.94268   1.000
    O277    O    0.06401   0.84720   0.94268   1.000
    O278    O    0.56401   0.34720   0.94268   1.000
    O279    O    0.56402   0.84721   0.94268   1.000
    O280    O    0.14350   0.12161   0.60483   1.000
    O281    O    0.14350   0.62161   0.60483   1.000
    O282    O    0.64351   0.12161   0.60483   1.000
    O283    O    0.64351   0.62161   0.60483   1.000
    O284    O    0.43614   0.09720   0.55728   1.000
    O285    O    0.43614   0.59720   0.55728   1.000
    O286    O    0.93616   0.09720   0.55728   1.000
    O287    O    0.93615   0.59721   0.55728   1.000
    O288    O    0.14345   0.12839   0.10484   1.000
    O289    O    0.14346   0.62840   0.10484   1.000
    O290    O    0.64347   0.12839   0.10484   1.000
    O291    O    0.64347   0.62839   0.10484   1.000
    O292    O    0.43609   0.15279   0.05730   1.000
    O293    O    0.43610   0.65280   0.05729   1.000
    O294    O    0.93610   0.15280   0.05730   1.000
    O295    O    0.93611   0.65280   0.05729   1.000
    O296    O    0.35669   0.37841   0.39515   1.000
    O297    O    0.35672   0.87841   0.39515   1.000
    O298    O    0.85671   0.37841   0.39515   1.000
    O299    O    0.85674   0.87842   0.39515   1.000
    O300    O    0.06408   0.40279   0.44268   1.000
    O301    O    0.06411   0.90280   0.44268   1.000
    O302    O    0.56409   0.40279   0.44268   1.000
    O303    O    0.56412   0.90279   0.44268   1.000
loop_
    _geom_bond_atom_site_label_1
    _geom_bond_atom_site_label_2
    _geom_bond_distance
    _geom_bond_site_symmetry_2
    _ccdc_geom_bond_type
    O295   C223      1.17429  1_655   S
    O293   C221      1.24137      .   S
    O294   C222      1.17426  1_655   S
    O292   C100      1.24130      .   S
    H102   C97       1.09951      .   S
    H101   C96       1.09954      .   S
    H103   C98       1.09954      .   S
    H104   C99       1.09950      .   S
    C221   O291      1.31432      .   S
    C221   C97       1.52773      .   S
    C223   O289      1.43422      .   S
    C223   C99       1.48330  1_455   S
    C100   O290      1.31430      .   S
    C100   C96       1.52773      .   S
    C222   O288      1.43418      .   S
    C222   C98       1.48332  1_455   S
    H72    O288      1.05105      .   S
    H73    O289      1.05103      .   S
    H74    O290      1.05105      .   S
    H75    O291      1.05105      .   S
    C99    H95       1.10082      .   S
    C99    N265      1.44026  1_655   S
    C98    H94       1.10069      .   S
    C98    N264      1.44021  1_655   S
    C97    H93       1.10081      .   S
    C97    N267      1.44039      .   S
    C96    H92       1.10080      .   S
    C96    N266      1.44037      .   S
    H65    N264      1.02616  1_565   S
    H67    N266      1.02616  1_565   S
    H66    N267      1.02579      .   S
    H64    N265      1.02580      .   S
    N266   C211      1.37246      .   S
    N264   C209      1.37246      .   S
    N265   C210      1.37246      .   S
    N267   C212      1.37247      .   S
    C224   C228      1.40159      .   S
    C224   C244      1.39409      .   S
    C225   C229      1.40159      .   S
    C225   C245      1.40354      .   S
    C226   C230      1.39476      .   S
    C226   C246      1.40344      .   S
    C227   C231      1.40157      .   S
    C227   C247      1.39409      .   S
    H113   C228      1.08895      .   S
    H115   C230      1.08102      .   S
    H114   C229      1.08895      .   S
    H116   C231      1.08895      .   S
    H125   C244      1.08100      .   S
    H126   C245      1.08846      .   S
    H127   C246      1.08835      .   S
    H128   C247      1.08101      .   S
    C230   C234      1.40454      .   S
    C212   C215      1.41648      .   S
    C212   C208      1.41419      .   S
    C211   C216      1.41652  1_545   S
    C211   C207      1.41466      .   S
    C210   C213      1.41645      .   S
    C210   C206      1.41418      .   S
    C209   C214      1.41652  1_545   S
    C209   C205      1.41465      .   S
    C228   C232      1.38945      .   S
    C229   C233      1.39032      .   S
    C231   C235      1.39033      .   S
    C244   C240      1.40276      .   S
    C247   C243      1.40277      .   S
    C246   C242      1.38557      .   S
    C245   C241      1.38535      .   S
    H84    C213      1.08996      .   S
    H85    C214      1.08993      .   S
    H86    C215      1.08994      .   S
    H87    C216      1.08993      .   S
    H80    C207      1.08845      .   S
    H81    C208      1.08805      .   S
    H82    C205      1.08828  1_655   S
    H83    C206      1.08789  1_655   S
    C216   C219      1.38534      .   S
    C215   C220      1.38537      .   S
    C214   C217      1.38122      .   S
    C213   C218      1.38124      .   S
    C208   C204      1.38925      .   S
    C206   C202      1.38925      .   S
    C207   C203      1.38839      .   S
    C205   C201      1.38840      .   S
    C234   H117      1.08867  1_655   S
    C234   C238      1.41518      .   S
    C232   H119      1.08885      .   S
    C232   C236      1.41519      .   S
    C233   H120      1.08847      .   S
    C233   C237      1.41470      .   S
    C235   H118      1.08831  1_655   S
    C235   C239      1.41470      .   S
    C242   H123      1.08976      .   S
    C242   C238      1.41650      .   S
    C243   H124      1.08998      .   S
    C243   C239      1.41652      .   S
    C240   H121      1.08975      .   S
    C240   C236      1.41652      .   S
    C241   H122      1.08998      .   S
    C241   C237      1.41653      .   S
    C217   H89       1.09028      .   S
    C217   C197      1.40576  1_565   S
    C218   H88       1.09020      .   S
    C218   C198      1.40578      .   S
    C219   H91       1.08846      .   S
    C219   C199      1.40350  1_565   S
    C220   H90       1.08840      .   S
    C220   C200      1.40351      .   S
    C201   H76       1.09005      .   S
    C201   C197      1.40245      .   S
    C204   H79       1.09007      .   S
    C204   C200      1.40245      .   S
    C203   H78       1.09006      .   S
    C203   C199      1.40245      .   S
    C202   H77       1.09007      .   S
    C202   C198      1.40245      .   S
    C239   N271      1.37244      .   S
    C238   N270      1.37242      .   S
    C237   N269      1.37245      .   S
    C236   N268      1.37244      .   S
    N271   H108      1.02573      .   S
    N271   C249      1.44025  1_655   S
    N270   H107      1.02575      .   S
    N270   C248      1.44023  1_655   S
    N269   H106      1.02572      .   S
    N269   C251      1.44041      .   S
    N268   H105      1.02573      .   S
    N268   C250      1.44038      .   S
    H129   C248      1.10150      .   S
    H132   C251      1.10078      .   S
    H131   C250      1.10080      .   S
    H130   C249      1.10080      .   S
    C248   C252      1.52773  1_455   S
    C248   H133      1.09955      .   S
    C249   C253      1.52770  1_455   S
    C249   H134      1.09956      .   S
    C250   C254      1.52771      .   S
    C250   H135      1.09956      .   S
    C251   C255      1.52769      .   S
    C251   H136      1.09940      .   S
    O296   H109      1.05097      .   S
    O296   C254      1.31427      .   S
    O297   H110      1.05097      .   S
    O297   C255      1.31427      .   S
    O298   H111      1.05097      .   S
    O298   C252      1.31404      .   S
    O299   H112      1.05097      .   S
    O299   C253      1.31405      .   S
    C254   O302      1.24137      .   S
    C252   O300      1.24137  1_655   S
    C253   O301      1.24138  1_655   S
    C255   O303      1.24136      .   S
    O284   C193      1.24138      .   S
    O285   C194      1.24142      .   S
    O286   C195      1.17417  1_655   S
    O287   C196      1.17417  1_655   S
    H63    C192      1.09950      .   S
    H60    C189      1.09841      .   S
    H61    C190      1.09949      .   S
    H62    C191      1.09950      .   S
    C195   O280      1.43454      .   S
    C195   C191      1.48312  1_455   S
    C194   O283      1.31431      .   S
    C194   C190      1.52769      .   S
    C193   O282      1.31431      .   S
    C193   C189      1.52717      .   S
    C196   O281      1.43455      .   S
    C196   C192      1.48313  1_455   S
    H39    O283      1.05104      .   S
    H38    O282      1.05103      .   S
    H37    O281      1.05102      .   S
    H36    O280      1.05103      .   S
    C189   H56       1.10150      .   S
    C189   N262      1.44118      .   S
    C192   H59       1.10081      .   S
    C192   N261      1.44027  1_655   S
    C191   H58       1.10080      .   S
    C191   N260      1.44025  1_655   S
    C190   H57       1.10081      .   S
    C190   N263      1.44041      .   S
    H35    N263      1.02588      .   S
    H33    N261      1.02587      .   S
    H34    N262      1.02567      .   S
    H32    N260      1.02565      .   S
    N260   C177      1.37222      .   S
    N261   C178      1.37220      .   S
    N262   C179      1.37242      .   S
    N263   C180      1.37242      .   S
    C140   C144      1.40158      .   S
    C140   C160      1.33440  1_565   S
    C139   C143      1.40159      .   S
    C139   C159      1.40260      .   S
    C138   C142      1.40160      .   S
    C138   C158      1.33543  1_565   S
    C137   C141      1.40160      .   S
    C137   C157      1.40353      .   S
    H10    C143      1.08905      .   S
    H9     C142      1.08902      .   S
    H8     C141      1.08904      .   S
    H11    C144      1.08903      .   S
    H20    C158      1.14557      .   S
    H21    C157      1.08885      .   S
    H22    C160      1.14487      .   S
    H23    C159      1.08771      .   S
    C177   C181      1.41667      .   S
    C177   C173      1.41476      .   S
    C178   C182      1.41667      .   S
    C178   C174      1.41475      .   S
    C179   C183      1.41656      .   S
    C179   C175      1.41462      .   S
    C180   C184      1.41657      .   S
    C180   C176      1.41461      .   S
    C141   C145      1.39030      .   S
    C142   C146      1.38943      .   S
    C143   C147      1.39030      .   S
    C144   C148      1.38944      .   S
    C160   C155      1.40634      .   S
    C159   C156      1.38707      .   S
    C158   C153      1.40461      .   S
    C157   C154      1.38533      .   S
    H48    C181      1.09002      .   S
    H51    C184      1.09001      .   S
    H50    C183      1.09002      .   S
    H49    C182      1.09003      .   S
    H44    C175      1.08834      .   S
    H47    C174      1.08818  1_655   S
    H45    C176      1.08835      .   S
    H46    C173      1.08820  1_655   S
    C183   C187      1.38534      .   S
    C182   C186      1.38533      .   S
    C181   C185      1.38533      .   S
    C184   C188      1.38534      .   S
    C176   C172      1.39031      .   S
    C175   C171      1.39031      .   S
    C174   C170      1.39030      .   S
    C173   C169      1.38878      .   S
    C148   H13       1.08871  1_655   S
    C148   C152      1.41519      .   S
    C146   H15       1.08886      .   S
    C146   C150      1.41519      .   S
    C147   H12       1.08824  1_655   S
    C147   C151      1.41471      .   S
    C145   H14       1.08791      .   S
    C145   C149      1.41469      .   S
    C153   H16       1.08996      .   S
    C153   C150      1.41658  1_545   S
    C154   H17       1.08996      .   S
    C154   C149      1.41653      .   S
    C155   H18       1.08996      .   S
    C155   C152      1.41657  1_545   S
    C156   H19       1.08998      .   S
    C156   C151      1.41654      .   S
    C185   H52       1.08842      .   S
    C185   C69       1.40348      .   S
    C188   H55       1.08842      .   S
    C188   C168      1.40347      .   S
    C187   H54       1.08842      .   S
    C187   C71       1.40346      .   S
    C186   H53       1.08842      .   S
    C186   C70       1.40347      .   S
    C169   H40       1.08992      .   S
    C169   C69       1.40235      .   S
    C172   H43       1.08910      .   S
    C172   C168      1.40165      .   S
    C171   H42       1.08909      .   S
    C171   C71       1.40166      .   S
    C170   H41       1.08912      .   S
    C170   C70       1.40165      .   S
    C150   N257      1.37242      .   S
    C151   N258      1.37243      .   S
    C149   N256      1.37242      .   S
    C152   N259      1.37242      .   S
    N257   H0        1.02574  1_565   S
    N257   C164      1.44037      .   S
    N259   H2        1.02575  1_565   S
    N259   C162      1.44022  1_655   S
    N258   H3        1.02571      .   S
    N258   C161      1.43640  1_655   S
    N256   H1        1.02569      .   S
    N256   C163      1.43658      .   S
    H24    C161      1.09743      .   S
    H26    C163      1.09743      .   S
    H27    C164      1.10083      .   S
    H25    C162      1.10072      .   S
    C161   C165      1.53022  1_455   S
    C161   H28       1.10489      .   S
    C163   C167      1.53023      .   S
    C163   H30       1.10488      .   S
    C164   C68       1.52768      .   S
    C164   H31       1.09950      .   S
    C162   C166      1.52769  1_455   S
    C162   H29       1.09949      .   S
    O272   H4        1.05096      .   S
    O272   C167      1.31426      .   S
    O275   H7        1.05098      .   S
    O275   C166      1.31403      .   S
    O274   H6        1.05096      .   S
    O274   C165      1.31406      .   S
    O273   H5        1.05098      .   S
    O273   C68       1.31427      .   S
    C166   O277      1.24148  1_655   S
    C165   O276      1.24141  1_655   S
    C167   O278      1.24141      .   S
    C68    O279      1.24146      .   S
