# CIF file generated by openbabel 2.4.90, see http://openbabel.sf.net
data_I
_chemical_name_common ''
_cell_length_a 9.647
_cell_length_b 19.512
_cell_length_c 23.029
_cell_angle_alpha 89.998
_cell_angle_beta 93.397
_cell_angle_gamma 89.999
_space_group_name_H-M_alt 'P 1'
_space_group_name_Hall 'P 1'
loop_
    _symmetry_equiv_pos_as_xyz
    x,y,z
loop_
    _atom_site_label
    _atom_site_type_symbol
    _atom_site_fract_x
    _atom_site_fract_y
    _atom_site_fract_z
    _atom_site_occupancy
    As0     As   0.27760   0.43460   0.59650   1.000
    As1     As   0.27762   0.93460   0.59651   1.000
    As2     As   0.77761   0.43460   0.59650   1.000
    As3     As   0.77764   0.93460   0.59651   1.000
    As4     As   0.22250   0.18459   0.90346   1.000
    As5     As   0.22251   0.68460   0.90346   1.000
    As6     As   0.72251   0.18459   0.90346   1.000
    As7     As   0.72252   0.68460   0.90346   1.000
    As8     As   0.22254   0.06540   0.40347   1.000
    As9     As   0.22254   0.56541   0.40347   1.000
    As10    As   0.72255   0.06540   0.40347   1.000
    As11    As   0.72255   0.56541   0.40347   1.000
    As12    As   0.27756   0.31540   0.09650   1.000
    As13    As   0.27756   0.81540   0.09650   1.000
    As14    As   0.77757   0.31540   0.09650   1.000
    As15    As   0.77758   0.81540   0.09650   1.000
    H16     H    0.06288   0.38243   0.58111   1.000
    H17     H    0.06290   0.88243   0.58111   1.000
    H18     H    0.56289   0.38243   0.58111   1.000
    H19     H    0.56291   0.88243   0.58111   1.000
    H20     H    0.43723   0.13243   0.91880   1.000
    H21     H    0.43724   0.63243   0.91885   1.000
    H22     H    0.93724   0.13243   0.91880   1.000
    H23     H    0.93725   0.63243   0.91885   1.000
    H24     H    0.43726   0.11757   0.41886   1.000
    H25     H    0.43726   0.61757   0.41886   1.000
    H26     H    0.93727   0.11757   0.41886   1.000
    H27     H    0.93727   0.61757   0.41886   1.000
    H28     H    0.06283   0.36757   0.08112   1.000
    H29     H    0.06283   0.86757   0.08112   1.000
    H30     H    0.56284   0.36757   0.08112   1.000
    H31     H    0.56285   0.86757   0.08112   1.000
    O32     O    0.41558   0.41140   0.55740   1.000
    O33     O    0.41560   0.91140   0.55740   1.000
    O34     O    0.91559   0.41140   0.55740   1.000
    O35     O    0.91561   0.91140   0.55741   1.000
    O36     O    0.15975   0.36352   0.59259   1.000
    O37     O    0.15977   0.86352   0.59250   1.000
    O38     O    0.65976   0.36352   0.59250   1.000
    O39     O    0.65978   0.86352   0.59259   1.000
    O40     O    0.18727   0.50320   0.56688   1.000
    O41     O    0.18729   0.00000   0.56688   1.000
    O42     O    0.68728   0.50320   0.56688   1.000
    O43     O    0.68730   0.00000   0.56688   1.000
    O44     O    0.08453   0.16140   0.94255   1.000
    O45     O    0.08454   0.66140   0.94255   1.000
    O46     O    0.58454   0.16140   0.94255   1.000
    O47     O    0.58455   0.66140   0.94255   1.000
    O48     O    0.34036   0.11352   0.90738   1.000
    O49     O    0.34037   0.61352   0.90738   1.000
    O50     O    0.84037   0.11352   0.90738   1.000
    O51     O    0.84038   0.61352   0.90738   1.000
    O52     O    0.31284   0.25319   0.93309   1.000
    O53     O    0.31285   0.75319   0.93309   1.000
    O54     O    0.81285   0.25319   0.93309   1.000
    O55     O    0.81286   0.75319   0.93309   1.000
    O56     O    0.08456   0.08859   0.44256   1.000
    O57     O    0.08456   0.58860   0.44256   1.000
    O58     O    0.58458   0.08859   0.44256   1.000
    O59     O    0.58457   0.58860   0.44256   1.000
    O60     O    0.34039   0.13648   0.40738   1.000
    O61     O    0.34039   0.63648   0.40738   1.000
    O62     O    0.84040   0.13648   0.40730   1.000
    O63     O    0.84040   0.63649   0.40730   1.000
    O64     O    0.31289   0.99681   0.43310   1.000
    O65     O    0.31288   0.49681   0.43310   1.000
    O66     O    0.81290   0.99681   0.43310   1.000
    O67     O    0.81289   0.49681   0.43310   1.000
    O68     O    0.41553   0.33860   0.05742   1.000
    O69     O    0.41554   0.83860   0.05742   1.000
    O70     O    0.91554   0.33860   0.05742   1.000
    O71     O    0.91555   0.83860   0.05742   1.000
    O72     O    0.15970   0.38648   0.09200   1.000
    O73     O    0.15970   0.88648   0.09259   1.000
    O74     O    0.65971   0.38648   0.09200   1.000
    O75     O    0.65972   0.88648   0.09200   1.000
    O76     O    0.18723   0.24680   0.06689   1.000
    O77     O    0.18723   0.74681   0.06689   1.000
    O78     O    0.68724   0.24680   0.06689   1.000
    O79     O    0.68725   0.74681   0.06689   1.000
loop_
    _geom_bond_atom_site_label_1
    _geom_bond_atom_site_label_2
    _geom_bond_distance
    _geom_bond_site_symmetry_2
    _ccdc_geom_bond_type
    O71    As15      1.71124      .   S
    O70    As14      1.71123      .   S
    O69    As13      1.71125      .   S
    O68    As12      1.71124      .   S
    O77    As13      1.71628      .   S
    O76    As12      1.71630      .   S
    O78    As14      1.71629      .   S
    O79    As15      1.71629      .   S
    H31    O75       1.02201      .   S
    H30    O74       1.02201      .   S
    H28    O72       1.02201      .   S
    H29    O73       1.02469      .   S
    O75    As15      1.79245      .   S
    O74    As14      1.79245      .   S
    O72    As12      1.79244      .   S
    O73    As13      1.79222      .   S
    As11   O63       1.79221      .   S
    As11   O67       1.71642      .   S
    As11   O59       1.71139      .   S
    As10   O62       1.79220      .   S
    As10   O66       1.71641  1_545   S
    As10   O58       1.71138      .   S
    As9    O61       1.79224      .   S
    As9    O65       1.71643      .   S
    As9    O57       1.71137      .   S
    As8    O60       1.79224      .   S
    As8    O64       1.71641  1_545   S
    As8    O56       1.71137      .   S
    O63    H27       1.02510      .   S
    O62    H26       1.02510      .   S
    O61    H25       1.02472      .   S
    O60    H24       1.02472      .   S
    O34    As2       1.71153      .   S
    O33    As1       1.71167      .   S
    O32    As0       1.71153      .   S
    O35    As3       1.71152      .   S
    O40    As0       1.71638      .   S
    O41    As1       1.66821  1_545   S
    O42    As2       1.71637      .   S
    O43    As3       1.66822  1_545   S
    H16    O36       1.02475      .   S
    H17    O37       1.02433      .   S
    H19    O39       1.02475      .   S
    H18    O38       1.02433      .   S
    O37    As1       1.79225      .   S
    O38    As2       1.79223      .   S
    O36    As0       1.79221      .   S
    O39    As3       1.79221      .   S
    As6    O50       1.79223      .   S
    As6    O54       1.71645      .   S
    As6    O46       1.71137      .   S
    As5    O49       1.79224      .   S
    As5    O53       1.71645      .   S
    As5    O45       1.71138      .   S
    As4    O48       1.79223      .   S
    As4    O52       1.71644      .   S
    As4    O44       1.71137      .   S
    As7    O51       1.79224      .   S
    As7    O55       1.71645      .   S
    As7    O47       1.71137      .   S
    O51    H23       1.02468      .   S
    O50    H22       1.02445      .   S
    O49    H21       1.02469      .   S
    O48    H20       1.02446      .   S
