# CIF file generated by openbabel 2.4.90, see http://openbabel.sf.net
data_I
_chemical_name_common ''
_cell_length_a 9.647
_cell_length_b 19.512
_cell_length_c 23.029
_cell_angle_alpha 89.998
_cell_angle_beta 93.397
_cell_angle_gamma 89.999
_space_group_name_H-M_alt 'P 1'
_space_group_name_Hall 'P 1'
loop_
    _symmetry_equiv_pos_as_xyz
    x,y,z
loop_
    _atom_site_label
    _atom_site_type_symbol
    _atom_site_fract_x
    _atom_site_fract_y
    _atom_site_fract_z
    _atom_site_occupancy
    Cd0     Cd   0.00008   0.50000   0.49999   1.000
    Cd1     Cd   0.50010   0.99999   0.49999   1.000
    Cd2     Cd   0.50009   0.50000   0.49999   1.000
    Cd3     Cd   0.00004   0.25000   0.00000   1.000
    Cd4     Cd   0.00004   0.75001   0.99999   1.000
    Cd5     Cd   0.50005   0.25000   0.00000   1.000
    Cd6     Cd   0.50006   0.75001   0.99999   1.000
    As7     As   0.27760   0.43460   0.59650   1.000
    As8     As   0.27762   0.93460   0.59651   1.000
    As9     As   0.77761   0.43460   0.59650   1.000
    As10    As   0.77764   0.93460   0.59651   1.000
    As11    As   0.22250   0.18459   0.90346   1.000
    As12    As   0.22251   0.68460   0.90346   1.000
    As13    As   0.72251   0.18459   0.90346   1.000
    As14    As   0.72252   0.68460   0.90346   1.000
    As15    As   0.22254   0.06540   0.40347   1.000
    As16    As   0.22254   0.56541   0.40347   1.000
    As17    As   0.72255   0.06540   0.40347   1.000
    As18    As   0.72255   0.56541   0.40347   1.000
    As19    As   0.27756   0.31540   0.09650   1.000
    As20    As   0.27756   0.81540   0.09650   1.000
    As21    As   0.77757   0.31540   0.09650   1.000
    As22    As   0.77758   0.81540   0.09650   1.000
    H23     H    0.06288   0.38243   0.58111   1.000
    H24     H    0.06290   0.88243   0.58111   1.000
    H25     H    0.56289   0.38243   0.58111   1.000
    H26     H    0.56291   0.88243   0.58111   1.000
    Cd27    Cd   0.00009   0.99999   0.49999   1.000
    H28     H    0.43723   0.13243   0.91880   1.000
    H29     H    0.43724   0.63243   0.91885   1.000
    H30     H    0.93724   0.13243   0.91880   1.000
    H31     H    0.93725   0.63243   0.91885   1.000
    H32     H    0.43726   0.11757   0.41886   1.000
    H33     H    0.43726   0.61757   0.41886   1.000
    H34     H    0.93727   0.11757   0.41886   1.000
    H35     H    0.93727   0.61757   0.41886   1.000
    H36     H    0.06283   0.36757   0.08112   1.000
    H37     H    0.06283   0.86757   0.08112   1.000
    H38     H    0.56284   0.36757   0.08112   1.000
    H39     H    0.56285   0.86757   0.08112   1.000
    O40     O    0.41558   0.41140   0.55740   1.000
    O41     O    0.41560   0.91140   0.55740   1.000
    O42     O    0.91559   0.41140   0.55740   1.000
    O43     O    0.91561   0.91140   0.55741   1.000
    O44     O    0.15975   0.36352   0.59259   1.000
    O45     O    0.15977   0.86352   0.59250   1.000
    O46     O    0.65976   0.36352   0.59250   1.000
    O47     O    0.65978   0.86352   0.59259   1.000
    O48     O    0.18727   0.50320   0.56688   1.000
    O49     O    0.18729   0.00000   0.56688   1.000
    O50     O    0.68728   0.50320   0.56688   1.000
    O51     O    0.68730   0.00000   0.56688   1.000
    O52     O    0.08453   0.16140   0.94255   1.000
    O53     O    0.08454   0.66140   0.94255   1.000
    O54     O    0.58454   0.16140   0.94255   1.000
    O55     O    0.58455   0.66140   0.94255   1.000
    O56     O    0.34036   0.11352   0.90738   1.000
    O57     O    0.34037   0.61352   0.90738   1.000
    O58     O    0.84037   0.11352   0.90738   1.000
    O59     O    0.84038   0.61352   0.90738   1.000
    O60     O    0.31284   0.25319   0.93309   1.000
    O61     O    0.31285   0.75319   0.93309   1.000
    O62     O    0.81285   0.25319   0.93309   1.000
    O63     O    0.81286   0.75319   0.93309   1.000
    O64     O    0.08456   0.08859   0.44256   1.000
    O65     O    0.08456   0.58860   0.44256   1.000
    O66     O    0.58458   0.08859   0.44256   1.000
    O67     O    0.58457   0.58860   0.44256   1.000
    O68     O    0.34039   0.13648   0.40738   1.000
    O69     O    0.34039   0.63648   0.40738   1.000
    O70     O    0.84040   0.13648   0.40730   1.000
    O71     O    0.84040   0.63649   0.40730   1.000
    O72     O    0.31289   0.99681   0.43310   1.000
    O73     O    0.31288   0.49681   0.43310   1.000
    O74     O    0.81290   0.99681   0.43310   1.000
    O75     O    0.81289   0.49681   0.43310   1.000
    O76     O    0.41553   0.33860   0.05742   1.000
    O77     O    0.41554   0.83860   0.05742   1.000
    O78     O    0.91554   0.33860   0.05742   1.000
    O79     O    0.91555   0.83860   0.05742   1.000
    O80     O    0.15970   0.38648   0.09200   1.000
    O81     O    0.15970   0.88648   0.09259   1.000
    O82     O    0.65971   0.38648   0.09200   1.000
    O83     O    0.65972   0.88648   0.09200   1.000
    O84     O    0.18723   0.24680   0.06689   1.000
    O85     O    0.18723   0.74681   0.06689   1.000
    O86     O    0.68724   0.24680   0.06689   1.000
    O87     O    0.68725   0.74681   0.06689   1.000
loop_
    _geom_bond_atom_site_label_1
    _geom_bond_atom_site_label_2
    _geom_bond_distance
    _geom_bond_site_symmetry_2
    _ccdc_geom_bond_type
    Cd3    O78       2.35138  1_455   S
    Cd3    O84       2.30394      .   S
    Cd3    O62       2.30418  1_454   S
    Cd3    O52       2.35193  1_554   S
    Cd5    O76       2.35146      .   S
    Cd5    O86       2.30394      .   S
    Cd5    O60       2.30437  1_554   S
    Cd5    O54       2.35191  1_554   S
    O79    As22      1.71124      .   S
    O79    Cd4       2.35152  1_654   S
    O78    As21      1.71123      .   S
    O77    As20      1.71125      .   S
    O77    Cd6       2.35160  1_554   S
    O76    As19      1.71124      .   S
    O85    As20      1.71628      .   S
    O85    Cd4       2.30406  1_554   S
    O84    As19      1.71630      .   S
    O86    As21      1.71629      .   S
    O87    As22      1.71629      .   S
    O87    Cd6       2.30407  1_554   S
    H39    O83       1.02201      .   S
    H38    O82       1.02201      .   S
    H36    O80       1.02201      .   S
    H37    O81       1.02469      .   S
    O83    As22      1.79245      .   S
    O82    As21      1.79245      .   S
    O80    As19      1.79244      .   S
    O81    As20      1.79222      .   S
    As18   O71       1.79221      .   S
    As18   O75       1.71642      .   S
    As18   O67       1.71139      .   S
    As17   O70       1.79220      .   S
    As17   O74       1.71641  1_545   S
    As17   O66       1.71138      .   S
    As16   O69       1.79224      .   S
    As16   O73       1.71643      .   S
    As16   O65       1.71137      .   S
    As15   O68       1.79224      .   S
    As15   O72       1.71641  1_545   S
    As15   O64       1.71137      .   S
    O71    H35       1.02510      .   S
    O70    H34       1.02510      .   S
    O69    H33       1.02472      .   S
    O68    H32       1.02472      .   S
    O74    Cd27      2.30393  1_655   S
    O75    Cd0       2.30390  1_655   S
    O73    Cd2       2.30408      .   S
    O72    Cd1       2.30410      .   S
    O67    Cd2       2.35153      .   S
    O66    Cd1       2.35152  1_545   S
    O65    Cd0       2.35153      .   S
    O64    Cd27      2.35152  1_545   S
    Cd0    O42       2.35122  1_455   S
    Cd0    O48       2.30393      .   S
    Cd27   O43       2.35124  1_455   S
    Cd27   O49       2.30316  1_565   S
    Cd1    O41       2.35119      .   S
    Cd1    O51       2.30318  1_565   S
    Cd2    O40       2.35131      .   S
    Cd2    O50       2.30393      .   S
    O42    As9       1.71153      .   S
    O41    As8       1.71167      .   S
    O40    As7       1.71153      .   S
    O43    As10      1.71152      .   S
    O48    As7       1.71638      .   S
    O49    As8       1.66821  1_545   S
    O50    As9       1.71637      .   S
    O51    As10      1.66822  1_545   S
    H23    O44       1.02475      .   S
    H24    O45       1.02433      .   S
    H26    O47       1.02475      .   S
    H25    O46       1.02433      .   S
    O45    As8       1.79225      .   S
    O46    As9       1.79223      .   S
    O44    As7       1.79221      .   S
    O47    As10      1.79221      .   S
    As13   O58       1.79223      .   S
    As13   O62       1.71645      .   S
    As13   O54       1.71137      .   S
    As12   O57       1.79224      .   S
    As12   O61       1.71645      .   S
    As12   O53       1.71138      .   S
    As11   O56       1.79223      .   S
    As11   O60       1.71644      .   S
    As11   O52       1.71137      .   S
    As14   O59       1.79224      .   S
    As14   O63       1.71645      .   S
    As14   O55       1.71137      .   S
    O59    H31       1.02468      .   S
    O58    H30       1.02445      .   S
    O57    H29       1.02469      .   S
    O56    H28       1.02446      .   S
    O61    Cd6       2.30422      .   S
    O63    Cd4       2.30403  1_655   S
    O55    Cd6       2.35179      .   S
    O53    Cd4       2.35178      .   S
