# CIF file generated by openbabel 2.4.90, see http://openbabel.sf.net
data_I
_chemical_name_common ''
_cell_length_a 9.647
_cell_length_b 19.512
_cell_length_c 23.029
_cell_angle_alpha 89.998
_cell_angle_beta 93.397
_cell_angle_gamma 89.999
_space_group_name_H-M_alt 'P 1'
_space_group_name_Hall 'P 1'
loop_
    _symmetry_equiv_pos_as_xyz
    x,y,z
loop_
    _atom_site_label
    _atom_site_type_symbol
    _atom_site_fract_x
    _atom_site_fract_y
    _atom_site_fract_z
    _atom_site_occupancy
    N0      N    0.72063   0.41903   0.57888   1.000
    N1      N    0.22061   0.41903   0.57890   1.000
    N2      N    0.22063   0.91839   0.57888   1.000
    N3      N    0.22057   0.83097   0.07890   1.000
    N4      N    0.72058   0.33097   0.07879   1.000
    N5      N    0.72059   0.83097   0.07879   1.000
    N6      N    0.72065   0.91839   0.57890   1.000
    N7      N    0.77950   0.16903   0.92106   1.000
    N8      N    0.27949   0.16902   0.92106   1.000
    N9      N    0.27950   0.66903   0.92107   1.000
    N10     N    0.77954   0.08097   0.42106   1.000
    N11     N    0.77954   0.58097   0.42106   1.000
    N12     N    0.22057   0.33097   0.07879   1.000
    N13     N    0.77951   0.66903   0.92107   1.000
    N14     N    0.27953   0.08097   0.42107   1.000
    N15     N    0.27953   0.58097   0.42107   1.000
    Zr16    Zr   0.00004   0.75001   0.99999   1.000
    O17     O    0.92151   0.73016   0.97190   1.000
    O18     O    0.07858   0.76985   0.02808   1.000
    O19     O    0.08047   0.71869   0.97308   1.000
    O20     O    0.91962   0.78132   0.02687   1.000
    Zr21    Zr   0.00009   0.99999   0.49999   1.000
    O22     O    0.07863   0.97959   0.52807   1.000
    O23     O    0.92155   0.01984   0.47190   1.000
    O24     O    0.91967   0.96852   0.52690   1.000
    O25     O    0.08051   0.03131   0.47308   1.000
    Zr26    Zr   0.50005   0.25000   0.00000   1.000
    O27     O    0.58047   0.21868   0.97308   1.000
    O28     O    0.57858   0.26984   0.02806   1.000
    O29     O    0.42151   0.23016   0.97190   1.000
    O30     O    0.41961   0.28132   0.02687   1.000
    Zr31    Zr   0.50010   0.99999   0.49999   1.000
    O32     O    0.42156   0.01984   0.47190   1.000
    O33     O    0.57864   0.97959   0.52808   1.000
    O34     O    0.58052   0.03131   0.47308   1.000
    O35     O    0.41967   0.96852   0.52689   1.000
    Zr36    Zr   0.00004   0.25000   0.00000   1.000
    O37     O    0.92150   0.23016   0.97190   1.000
    O38     O    0.07857   0.26984   0.02806   1.000
    O39     O    0.08046   0.21868   0.97308   1.000
    O40     O    0.91961   0.28132   0.02687   1.000
    Zr41    Zr   0.50006   0.75001   0.99999   1.000
    O42     O    0.57859   0.76985   0.02805   1.000
    O43     O    0.42152   0.73016   0.97190   1.000
    O44     O    0.58048   0.71869   0.97308   1.000
    O45     O    0.41962   0.78132   0.02690   1.000
    Zr46    Zr   0.00008   0.50000   0.49999   1.000
    O47     O    0.07861   0.48015   0.52808   1.000
    O48     O    0.92155   0.51984   0.47190   1.000
    O49     O    0.08050   0.53132   0.47308   1.000
    O50     O    0.91966   0.46868   0.52689   1.000
    Zr51    Zr   0.50009   0.50000   0.49999   1.000
    O52     O    0.42155   0.51984   0.47190   1.000
    O53     O    0.58051   0.53132   0.47308   1.000
    O54     O    0.41966   0.46868   0.52689   1.000
    O55     O    0.57863   0.48015   0.52807   1.000
loop_
    _geom_bond_atom_site_label_1
    _geom_bond_atom_site_label_2
    _geom_bond_distance
    _geom_bond_site_symmetry_2
    _ccdc_geom_bond_type
    Zr16   O17       1.04134  1_455   S
    N13    O17       2.11653      .   S
    Zr16   O18       1.04128  1_556   S
    N3     O18       2.11636      .   S
    Zr16   O19       1.19016      .   S
    N9     O19       2.51648      .   S
    Zr16   O20       1.18970  1_456   S
    N5     O20       2.51529      .   S
    Zr21   O22       1.04529      .   S
    N2     O22       2.11700      .   S
    Zr21   O23       1.04137  1_465   S
    N10    O23       2.11663      .   S
    Zr21   O24       1.19159  1_455   S
    N6     O24       2.51985      .   S
    Zr21   O25       1.19007  1_565   S
    N14    O25       2.51635      .   S
    Zr26   O27       1.19024  1_554   S
    N7     O27       2.51664      .   S
    Zr26   O28       1.04084      .   S
    N4     O28       2.11524      .   S
    Zr26   O29       1.04149  1_554   S
    N8     O29       2.11679      .   S
    Zr26   O30       1.18971      .   S
    N12    O30       2.51534      .   S
    Zr31   O32       1.04137  1_565   S
    N14    O32       2.11657      .   S
    Zr31   O33       1.04536      .   S
    N6     O33       2.11718      .   S
    Zr31   O34       1.19013  1_565   S
    N10    O34       2.51650      .   S
    Zr31   O35       1.19157      .   S
    N2     O35       2.51980      .   S
    Zr36   O37       1.04143  1_454   S
    N7     O37       2.11670      .   S
    Zr36   O38       1.04084      .   S
    N12    O38       2.11525      .   S
    Zr36   O39       1.19025  1_554   S
    N8     O39       2.51665      .   S
    Zr36   O40       1.18964  1_455   S
    N4     O40       2.51521      .   S
    Zr41   O42       1.04088  1_556   S
    N5     O42       2.11531      .   S
    Zr41   O43       1.04141      .   S
    N9     O43       2.11663      .   S
    Zr41   O44       1.19016      .   S
    N13    O44       2.51648      .   S
    Zr41   O45       1.19014  1_556   S
    N3     O45       2.51648      .   S
    Zr46   O47       1.04121      .   S
    N1     O47       2.11625      .   S
    Zr46   O48       1.04135  1_455   S
    N11    O48       2.11660      .   S
    Zr46   O49       1.19008      .   S
    N15    O49       2.51637      .   S
    Zr46   O50       1.18995  1_455   S
    N0     O50       2.51614      .   S
    Zr51   O52       1.04136      .   S
    N15    O52       2.11655      .   S
    Zr51   O53       1.19014      .   S
    N11    O53       2.51653      .   S
    Zr51   O54       1.19007      .   S
    N1     O54       2.51641      .   S
    Zr51   O55       1.04116      .   S
    N0     O55       2.11610      .   S
