# CIF file generated by openbabel 2.4.90, see http://openbabel.sf.net
data_I
_chemical_name_common ''
_cell_length_a 9.647
_cell_length_b 19.512
_cell_length_c 23.029
_cell_angle_alpha 89.998
_cell_angle_beta 93.397
_cell_angle_gamma 89.999
_space_group_name_H-M_alt 'P 1'
_space_group_name_Hall 'P 1'
loop_
    _symmetry_equiv_pos_as_xyz
    x,y,z
loop_
    _atom_site_label
    _atom_site_type_symbol
    _atom_site_fract_x
    _atom_site_fract_y
    _atom_site_fract_z
    _atom_site_occupancy
    C0      C    0.00009   0.99999   0.49999   1.000
    C1      C    0.00008   0.50000   0.49999   1.000
    C2      C    0.50010   0.99999   0.49999   1.000
    C3      C    0.50009   0.50000   0.49999   1.000
    C4      C    0.00004   0.25000   0.00000   1.000
    C5      C    0.00004   0.75001   0.99999   1.000
    C6      C    0.50005   0.25000   0.00000   1.000
    C7      C    0.50006   0.75001   0.99999   1.000
    C8      C    0.27760   0.43460   0.59650   1.000
    C9      C    0.27762   0.93460   0.59651   1.000
    C10     C    0.77761   0.43460   0.59650   1.000
    C11     C    0.77764   0.93460   0.59651   1.000
    C12     C    0.22250   0.18459   0.90346   1.000
    C13     C    0.22251   0.68460   0.90346   1.000
    C14     C    0.72251   0.18459   0.90346   1.000
    C15     C    0.72252   0.68460   0.90346   1.000
    C16     C    0.22254   0.06540   0.40347   1.000
    C17     C    0.22254   0.56541   0.40347   1.000
    C18     C    0.72255   0.06540   0.40347   1.000
    C19     C    0.72255   0.56541   0.40347   1.000
    C20     C    0.27756   0.31540   0.09650   1.000
    C21     C    0.27756   0.81540   0.09650   1.000
    C22     C    0.77757   0.31540   0.09650   1.000
    C23     C    0.77758   0.81540   0.09650   1.000
    C24     C    0.39483   0.02886   0.87074   1.000
    C25     C    0.39483   0.52886   0.87074   1.000
    C26     C    0.89484   0.02886   0.87074   1.000
    C27     C    0.89485   0.52887   0.87074   1.000
    C28     C    0.06288   0.38243   0.58111   1.000
    C29     C    0.06290   0.88243   0.58111   1.000
    C30     C    0.56289   0.38243   0.58111   1.000
    C31     C    0.56291   0.88243   0.58111   1.000
    C32     C    0.32763   0.32340   0.91079   1.000
    C33     C    0.32764   0.82341   0.91079   1.000
    C34     C    0.82764   0.32340   0.91079   1.000
    C35     C    0.82765   0.82341   0.91079   1.000
    C36     C    0.48162   0.36843   0.68305   1.000
    C37     C    0.48164   0.86843   0.68305   1.000
    C38     C    0.98163   0.36843   0.68305   1.000
    C39     C    0.98165   0.86843   0.68305   1.000
    C40     C    0.05034   0.38877   0.78525   1.000
    C41     C    0.05036   0.88877   0.78526   1.000
    C42     C    0.55034   0.38877   0.78520   1.000
    C43     C    0.55037   0.88877   0.78526   1.000
    C44     C    0.26169   0.05891   0.78749   1.000
    C45     C    0.26170   0.55891   0.78749   1.000
    C46     C    0.76171   0.05891   0.78749   1.000
    C47     C    0.76172   0.55891   0.78749   1.000
    C48     C    0.18964   0.03690   0.68530   1.000
    C49     C    0.18964   0.53691   0.68530   1.000
    C50     C    0.68966   0.03691   0.68530   1.000
    C51     C    0.68966   0.53691   0.68534   1.000
    C52     C    0.14049   0.43823   0.86707   1.000
    C53     C    0.14049   0.93824   0.86708   1.000
    C54     C    0.64050   0.43823   0.86707   1.000
    C55     C    0.64051   0.93823   0.86707   1.000
    C56     C    0.07938   0.48227   0.92643   1.000
    C57     C    0.07938   0.98228   0.92643   1.000
    C58     C    0.57938   0.48227   0.92643   1.000
    C59     C    0.57939   0.98228   0.92643   1.000
    C60     C    0.10524   0.27886   0.62922   1.000
    C61     C    0.10525   0.77886   0.62920   1.000
    C62     C    0.60526   0.27886   0.62922   1.000
    C63     C    0.60527   0.77886   0.62920   1.000
    C64     C    0.43723   0.13243   0.91880   1.000
    C65     C    0.43724   0.63243   0.91885   1.000
    C66     C    0.93724   0.13243   0.91880   1.000
    C67     C    0.93725   0.63243   0.91885   1.000
    C68     C    0.17250   0.07342   0.58917   1.000
    C69     C    0.17250   0.57342   0.58917   1.000
    C70     C    0.67251   0.07341   0.58917   1.000
    C71     C    0.67251   0.57342   0.58917   1.000
    C72     C    0.01848   0.11843   0.81692   1.000
    C73     C    0.01848   0.61844   0.81692   1.000
    C74     C    0.51849   0.11843   0.81692   1.000
    C75     C    0.51850   0.61844   0.81692   1.000
    C76     C    0.44975   0.13876   0.71472   1.000
    C77     C    0.44976   0.63877   0.71472   1.000
    C78     C    0.94976   0.13876   0.71472   1.000
    C79     C    0.94976   0.63877   0.71472   1.000
    C80     C    0.23837   0.30891   0.71246   1.000
    C81     C    0.23838   0.80891   0.71246   1.000
    C82     C    0.73839   0.30890   0.71246   1.000
    C83     C    0.73840   0.80891   0.71246   1.000
    C84     C    0.31044   0.28691   0.81461   1.000
    C85     C    0.31045   0.78691   0.81461   1.000
    C86     C    0.81046   0.28691   0.81461   1.000
    C87     C    0.81047   0.78691   0.81461   1.000
    C88     C    0.35961   0.18821   0.63289   1.000
    C89     C    0.35962   0.68822   0.63289   1.000
    C90     C    0.85962   0.18821   0.63289   1.000
    C91     C    0.85962   0.68822   0.63289   1.000
    C92     C    0.42070   0.23227   0.57353   1.000
    C93     C    0.42071   0.73227   0.57353   1.000
    C94     C    0.92070   0.23227   0.57353   1.000
    C95     C    0.92072   0.73227   0.57353   1.000
    C96     C    0.10523   0.47113   0.12923   1.000
    C97     C    0.10524   0.97113   0.12920   1.000
    C98     C    0.60524   0.47114   0.12923   1.000
    C99     C    0.60526   0.97113   0.12920   1.000
    C100    C    0.43726   0.11757   0.41886   1.000
    C101    C    0.43726   0.61757   0.41886   1.000
    C102    C    0.93727   0.11757   0.41886   1.000
    C103    C    0.93727   0.61757   0.41886   1.000
    C104    C    0.17245   0.17659   0.08918   1.000
    C105    C    0.17245   0.67659   0.08918   1.000
    C106    C    0.67246   0.17659   0.08918   1.000
    C107    C    0.67247   0.67659   0.08918   1.000
    C108    C    0.01849   0.13157   0.31693   1.000
    C109    C    0.01850   0.63157   0.31693   1.000
    C110    C    0.51850   0.13157   0.31693   1.000
    C111    C    0.51851   0.63158   0.31693   1.000
    C112    C    0.44974   0.11123   0.21473   1.000
    C113    C    0.44975   0.61124   0.21473   1.000
    C114    C    0.94976   0.11123   0.21473   1.000
    C115    C    0.94976   0.61123   0.21473   1.000
    C116    C    0.23837   0.44109   0.21248   1.000
    C117    C    0.23839   0.94109   0.21248   1.000
    C118    C    0.73839   0.44109   0.21248   1.000
    C119    C    0.73841   0.94109   0.21248   1.000
    C120    C    0.31046   0.46309   0.31462   1.000
    C121    C    0.31047   0.96309   0.31462   1.000
    C122    C    0.81048   0.46309   0.31462   1.000
    C123    C    0.81049   0.96309   0.31462   1.000
    C124    C    0.35959   0.06177   0.13291   1.000
    C125    C    0.35959   0.56178   0.13291   1.000
    C126    C    0.85960   0.06177   0.13290   1.000
    C127    C    0.85960   0.56178   0.13291   1.000
    C128    C    0.42068   0.01772   0.07355   1.000
    C129    C    0.42069   0.51773   0.07355   1.000
    C130    C    0.92070   0.01772   0.07355   1.000
    C131    C    0.92070   0.51773   0.07355   1.000
    C132    C    0.39487   0.22114   0.37076   1.000
    C133    C    0.39488   0.72115   0.37076   1.000
    C134    C    0.89487   0.22114   0.37076   1.000
    C135    C    0.89489   0.72115   0.37076   1.000
    C136    C    0.06283   0.36757   0.08112   1.000
    C137    C    0.06283   0.86757   0.08112   1.000
    C138    C    0.56284   0.36757   0.08112   1.000
    C139    C    0.56285   0.86757   0.08112   1.000
    C140    C    0.32769   0.42661   0.41080   1.000
    C141    C    0.32772   0.92661   0.41080   1.000
    C142    C    0.82770   0.42661   0.41080   1.000
    C143    C    0.82773   0.92661   0.41080   1.000
    C144    C    0.48158   0.38157   0.18305   1.000
    C145    C    0.48159   0.88157   0.18305   1.000
    C146    C    0.98159   0.38157   0.18305   1.000
    C147    C    0.98160   0.88157   0.18305   1.000
    C148    C    0.05033   0.36124   0.28525   1.000
    C149    C    0.05034   0.86125   0.28525   1.000
    C150    C    0.55034   0.36124   0.28525   1.000
    C151    C    0.55035   0.86124   0.28525   1.000
    C152    C    0.26171   0.19109   0.28750   1.000
    C153    C    0.26172   0.69110   0.28752   1.000
    C154    C    0.76173   0.19109   0.28750   1.000
    C155    C    0.76174   0.69110   0.28752   1.000
    C156    C    0.18962   0.21309   0.18537   1.000
    C157    C    0.18963   0.71310   0.18537   1.000
    C158    C    0.68964   0.21309   0.18537   1.000
    C159    C    0.68965   0.71309   0.18537   1.000
    C160    C    0.14052   0.31177   0.36700   1.000
    C161    C    0.14054   0.81177   0.36706   1.000
    C162    C    0.64053   0.31177   0.36706   1.000
    C163    C    0.64055   0.81178   0.36706   1.000
    C164    C    0.07944   0.26772   0.42643   1.000
    C165    C    0.07947   0.76773   0.42643   1.000
    C166    C    0.57946   0.26772   0.42643   1.000
    C167    C    0.57948   0.76773   0.42642   1.000
    C168    C    0.33210   0.45158   0.67678   1.000
    C169    C    0.33212   0.95159   0.67678   1.000
    C170    C    0.83211   0.45158   0.67678   1.000
    C171    C    0.83214   0.95159   0.67678   1.000
    C172    C    0.43294   0.41021   0.70569   1.000
    C173    C    0.43296   0.91022   0.70569   1.000
    C174    C    0.93295   0.41021   0.70569   1.000
    C175    C    0.93298   0.91022   0.70569   1.000
    C176    C    0.47199   0.42184   0.76394   1.000
    C177    C    0.47201   0.92184   0.76390   1.000
    C178    C    0.97200   0.42183   0.76394   1.000
    C179    C    0.97202   0.92184   0.76390   1.000
    C180    C    0.41249   0.47633   0.79445   1.000
    C181    C    0.41250   0.97633   0.79445   1.000
    C182    C    0.91251   0.47633   0.79445   1.000
    C183    C    0.91252   0.97633   0.79445   1.000
    C184    C    0.30977   0.01709   0.76459   1.000
    C185    C    0.30978   0.51709   0.76459   1.000
    C186    C    0.80979   0.01709   0.76459   1.000
    C187    C    0.80980   0.51709   0.76459   1.000
    C188    C    0.26954   0.50482   0.70678   1.000
    C189    C    0.26956   0.00000   0.70678   1.000
    C190    C    0.76956   0.50482   0.70670   1.000
    C191    C    0.76958   0.00000   0.70670   1.000
    C192    C    0.04478   0.45147   0.88800   1.000
    C193    C    0.04479   0.95148   0.88830   1.000
    C194    C    0.54479   0.45147   0.88800   1.000
    C195    C    0.54480   0.95148   0.88830   1.000
    C196    C    0.98692   0.38454   0.91133   1.000
    C197    C    0.98693   0.88454   0.91133   1.000
    C198    C    0.48693   0.38454   0.91133   1.000
    C199    C    0.48694   0.88454   0.91133   1.000
    C200    C    0.16799   0.20158   0.82318   1.000
    C201    C    0.16800   0.70159   0.82318   1.000
    C202    C    0.66801   0.20158   0.82318   1.000
    C203    C    0.66801   0.70159   0.82318   1.000
    C204    C    0.06715   0.16021   0.79420   1.000
    C205    C    0.06716   0.66022   0.79427   1.000
    C206    C    0.56716   0.16021   0.79427   1.000
    C207    C    0.56717   0.66022   0.79427   1.000
    C208    C    0.02809   0.17184   0.73602   1.000
    C209    C    0.02810   0.67184   0.73602   1.000
    C210    C    0.52810   0.17184   0.73602   1.000
    C211    C    0.52811   0.67184   0.73602   1.000
    C212    C    0.08758   0.22633   0.70550   1.000
    C213    C    0.08759   0.72633   0.70550   1.000
    C214    C    0.58760   0.22633   0.70551   1.000
    C215    C    0.58761   0.72633   0.70551   1.000
    C216    C    0.19029   0.26709   0.73537   1.000
    C217    C    0.19030   0.76710   0.73537   1.000
    C218    C    0.69031   0.26709   0.73537   1.000
    C219    C    0.69032   0.76710   0.73537   1.000
    C220    C    0.23054   0.25482   0.79318   1.000
    C221    C    0.23055   0.75483   0.79318   1.000
    C222    C    0.73056   0.25482   0.79318   1.000
    C223    C    0.73057   0.75482   0.79318   1.000
    C224    C    0.45531   0.20147   0.61160   1.000
    C225    C    0.45532   0.70148   0.61166   1.000
    C226    C    0.95532   0.20147   0.61166   1.000
    C227    C    0.95533   0.70147   0.61166   1.000
    C228    C    0.51320   0.13454   0.58863   1.000
    C229    C    0.51320   0.63454   0.58863   1.000
    C230    C    0.00000   0.13454   0.58863   1.000
    C231    C    0.00000   0.63454   0.58863   1.000
    C232    C    0.16801   0.04841   0.32319   1.000
    C233    C    0.16802   0.54842   0.32319   1.000
    C234    C    0.66803   0.04841   0.32319   1.000
    C235    C    0.66803   0.54842   0.32319   1.000
    C236    C    0.06716   0.08979   0.29420   1.000
    C237    C    0.06717   0.58979   0.29420   1.000
    C238    C    0.56718   0.08979   0.29420   1.000
    C239    C    0.56718   0.58979   0.29420   1.000
    C240    C    0.02809   0.07816   0.23604   1.000
    C241    C    0.02810   0.57817   0.23600   1.000
    C242    C    0.52811   0.07816   0.23604   1.000
    C243    C    0.52812   0.57817   0.23600   1.000
    C244    C    0.08758   0.02367   0.20553   1.000
    C245    C    0.08759   0.52367   0.20553   1.000
    C246    C    0.58760   0.02367   0.20553   1.000
    C247    C    0.58760   0.52367   0.20553   1.000
    C248    C    0.19030   0.48291   0.23538   1.000
    C249    C    0.19031   0.98291   0.23538   1.000
    C250    C    0.69032   0.48291   0.23538   1.000
    C251    C    0.69033   0.98291   0.23538   1.000
    C252    C    0.23055   0.99518   0.29300   1.000
    C253    C    0.23056   0.49518   0.29300   1.000
    C254    C    0.73057   0.99518   0.29319   1.000
    C255    C    0.73057   0.49518   0.29319   1.000
    C256    C    0.45530   0.04852   0.11168   1.000
    C257    C    0.45529   0.54853   0.11168   1.000
    C258    C    0.95531   0.04852   0.11168   1.000
    C259    C    0.95531   0.54853   0.11168   1.000
    C260    C    0.51317   0.11546   0.08864   1.000
    C261    C    0.51317   0.61546   0.08864   1.000
    C262    C    0.00000   0.11546   0.08864   1.000
    C263    C    0.00000   0.61546   0.08864   1.000
    C264    C    0.33207   0.29841   0.17679   1.000
    C265    C    0.33208   0.79842   0.17679   1.000
    C266    C    0.83209   0.29841   0.17679   1.000
    C267    C    0.83210   0.79842   0.17679   1.000
    C268    C    0.43291   0.33979   0.20569   1.000
    C269    C    0.43292   0.83979   0.20569   1.000
    C270    C    0.93293   0.33979   0.20500   1.000
    C271    C    0.93294   0.83979   0.20569   1.000
    C272    C    0.47198   0.32817   0.26390   1.000
    C273    C    0.47199   0.82817   0.26394   1.000
    C274    C    0.97200   0.32816   0.26390   1.000
    C275    C    0.97201   0.82817   0.26394   1.000
    C276    C    0.41250   0.27368   0.29446   1.000
    C277    C    0.41251   0.77368   0.29446   1.000
    C278    C    0.91251   0.27368   0.29446   1.000
    C279    C    0.91252   0.77368   0.29446   1.000
    C280    C    0.30978   0.23291   0.26461   1.000
    C281    C    0.30979   0.73292   0.26461   1.000
    C282    C    0.80980   0.23291   0.26461   1.000
    C283    C    0.80981   0.73291   0.26461   1.000
    C284    C    0.26953   0.24518   0.20600   1.000
    C285    C    0.26953   0.74518   0.20680   1.000
    C286    C    0.76954   0.24518   0.20679   1.000
    C287    C    0.76955   0.74518   0.20600   1.000
    C288    C    0.04482   0.29853   0.38830   1.000
    C289    C    0.04485   0.79853   0.38830   1.000
    C290    C    0.54484   0.29853   0.38830   1.000
    C291    C    0.54486   0.79853   0.38830   1.000
    C292    C    0.98698   0.36547   0.41134   1.000
    C293    C    0.98701   0.86547   0.41134   1.000
    C294    C    0.48699   0.36546   0.41134   1.000
    C295    C    0.48702   0.86547   0.41134   1.000
    C296    C    0.45215   0.49221   0.85107   1.000
    C297    C    0.45216   0.99222   0.85107   1.000
    C298    C    0.95217   0.49221   0.85107   1.000
    C299    C    0.95218   0.99222   0.85107   1.000
    C300    C    0.04791   0.24222   0.64889   1.000
    C301    C    0.04792   0.74222   0.64889   1.000
    C302    C    0.54793   0.24221   0.64889   1.000
    C303    C    0.54794   0.74222   0.64889   1.000
    C304    C    0.04791   0.00778   0.14891   1.000
    C305    C    0.04791   0.50779   0.14891   1.000
    C306    C    0.54792   0.00778   0.14891   1.000
    C307    C    0.54792   0.50779   0.14891   1.000
    C308    C    0.45218   0.25779   0.35108   1.000
    C309    C    0.45219   0.75780   0.35108   1.000
    C310    C    0.95219   0.25779   0.35108   1.000
    C311    C    0.95221   0.75780   0.35108   1.000
    C312    C    0.41558   0.41140   0.55740   1.000
    C313    C    0.41560   0.91140   0.55740   1.000
    C314    C    0.91559   0.41140   0.55740   1.000
    C315    C    0.91561   0.91140   0.55741   1.000
    C316    C    0.15975   0.36352   0.59259   1.000
    C317    C    0.15977   0.86352   0.59250   1.000
    C318    C    0.65976   0.36352   0.59250   1.000
    C319    C    0.65978   0.86352   0.59259   1.000
    C320    C    0.18727   0.50320   0.56688   1.000
    C321    C    0.18729   0.00000   0.56688   1.000
    C322    C    0.68728   0.50320   0.56688   1.000
    C323    C    0.68730   0.00000   0.56688   1.000
    C324    C    0.35663   0.37160   0.89514   1.000
    C325    C    0.35664   0.87160   0.89514   1.000
    C326    C    0.85664   0.37160   0.89514   1.000
    C327    C    0.85665   0.87160   0.89514   1.000
    C328    C    0.06400   0.34720   0.94268   1.000
    C329    C    0.06401   0.84720   0.94268   1.000
    C330    C    0.56401   0.34720   0.94268   1.000
    C331    C    0.56402   0.84721   0.94268   1.000
    C332    C    0.08453   0.16140   0.94255   1.000
    C333    C    0.08454   0.66140   0.94255   1.000
    C334    C    0.58454   0.16140   0.94255   1.000
    C335    C    0.58455   0.66140   0.94255   1.000
    C336    C    0.34036   0.11352   0.90738   1.000
    C337    C    0.34037   0.61352   0.90738   1.000
    C338    C    0.84037   0.11352   0.90738   1.000
    C339    C    0.84038   0.61352   0.90738   1.000
    C340    C    0.31284   0.25319   0.93309   1.000
    C341    C    0.31285   0.75319   0.93309   1.000
    C342    C    0.81285   0.25319   0.93309   1.000
    C343    C    0.81286   0.75319   0.93309   1.000
    C344    C    0.14350   0.12161   0.60483   1.000
    C345    C    0.14350   0.62161   0.60483   1.000
    C346    C    0.64351   0.12161   0.60483   1.000
    C347    C    0.64351   0.62161   0.60483   1.000
    C348    C    0.43614   0.09720   0.55728   1.000
    C349    C    0.43614   0.59720   0.55728   1.000
    C350    C    0.93616   0.09720   0.55728   1.000
    C351    C    0.93615   0.59721   0.55728   1.000
    C352    C    0.08456   0.08859   0.44256   1.000
    C353    C    0.08456   0.58860   0.44256   1.000
    C354    C    0.58458   0.08859   0.44256   1.000
    C355    C    0.58457   0.58860   0.44256   1.000
    C356    C    0.34039   0.13648   0.40738   1.000
    C357    C    0.34039   0.63648   0.40738   1.000
    C358    C    0.84040   0.13648   0.40730   1.000
    C359    C    0.84040   0.63649   0.40730   1.000
    C360    C    0.31289   0.99681   0.43310   1.000
    C361    C    0.31288   0.49681   0.43310   1.000
    C362    C    0.81290   0.99681   0.43310   1.000
    C363    C    0.81289   0.49681   0.43310   1.000
    C364    C    0.14345   0.12839   0.10484   1.000
    C365    C    0.14346   0.62840   0.10484   1.000
    C366    C    0.64347   0.12839   0.10484   1.000
    C367    C    0.64347   0.62839   0.10484   1.000
    C368    C    0.43609   0.15279   0.05730   1.000
    C369    C    0.43610   0.65280   0.05729   1.000
    C370    C    0.93610   0.15280   0.05730   1.000
    C371    C    0.93611   0.65280   0.05729   1.000
    C372    C    0.41553   0.33860   0.05742   1.000
    C373    C    0.41554   0.83860   0.05742   1.000
    C374    C    0.91554   0.33860   0.05742   1.000
    C375    C    0.91555   0.83860   0.05742   1.000
    C376    C    0.15970   0.38648   0.09200   1.000
    C377    C    0.15970   0.88648   0.09259   1.000
    C378    C    0.65971   0.38648   0.09200   1.000
    C379    C    0.65972   0.88648   0.09200   1.000
    C380    C    0.18723   0.24680   0.06689   1.000
    C381    C    0.18723   0.74681   0.06689   1.000
    C382    C    0.68724   0.24680   0.06689   1.000
    C383    C    0.68725   0.74681   0.06689   1.000
    C384    C    0.35669   0.37841   0.39515   1.000
    C385    C    0.35672   0.87841   0.39515   1.000
    C386    C    0.85671   0.37841   0.39515   1.000
    C387    C    0.85674   0.87842   0.39515   1.000
    C388    C    0.06408   0.40279   0.44268   1.000
    C389    C    0.06411   0.90280   0.44268   1.000
    C390    C    0.56409   0.40279   0.44268   1.000
    C391    C    0.56412   0.90279   0.44268   1.000
    O392    O    0.96807   0.20140   0.02865   1.000
    O393    O    0.95779   0.29430   0.02871   1.000
    O394    O    0.09363   0.24840   0.03345   1.000
    O395    O    0.90644   0.25160   0.96654   1.000
    O396    O    0.04228   0.20570   0.97128   1.000
    O397    O    0.03202   0.29860   0.97134   1.000
    O398    O    0.46807   0.20140   0.02865   1.000
    O399    O    0.45779   0.29430   0.02871   1.000
    O400    O    0.59364   0.24840   0.03345   1.000
    O401    O    0.40644   0.25160   0.96654   1.000
    O402    O    0.54229   0.20570   0.97128   1.000
    O403    O    0.53203   0.29860   0.97134   1.000
    O404    O    0.96805   0.63413   0.07297   1.000
    O405    O    0.96808   0.70140   0.02864   1.000
    O406    O    0.47463   0.63413   0.07297   1.000
    O407    O    0.46808   0.70140   0.02864   1.000
    O408    O    0.96805   0.13413   0.07297   1.000
    O409    O    0.47463   0.13413   0.07297   1.000
    O410    O    0.84656   0.82700   0.07696   1.000
    O411    O    0.95780   0.79430   0.02871   1.000
    O412    O    0.84656   0.32700   0.07696   1.000
    O413    O    0.34655   0.82700   0.07696   1.000
    O414    O    0.45780   0.79430   0.02871   1.000
    O415    O    0.34654   0.32700   0.07696   1.000
    O416    O    0.23240   0.78111   0.08170   1.000
    O417    O    0.09364   0.74841   0.03344   1.000
    O418    O    0.23239   0.28110   0.08170   1.000
    O419    O    0.73241   0.28110   0.08170   1.000
    O420    O    0.73241   0.78110   0.08170   1.000
    O421    O    0.59365   0.74841   0.03344   1.000
    O422    O    0.43799   0.53313   0.09262   1.000
    O423    O    0.43799   0.03312   0.09262   1.000
    O424    O    0.93800   0.03312   0.09262   1.000
    O425    O    0.93800   0.53313   0.09262   1.000
    O426    O    0.61128   0.87703   0.08656   1.000
    O427    O    0.61128   0.37702   0.08656   1.000
    O428    O    0.11126   0.37702   0.08656   1.000
    O429    O    0.11127   0.87703   0.08685   1.000
    O430    O    0.57832   0.62193   0.09674   1.000
    O431    O    0.48423   0.58199   0.10016   1.000
    O432    O    0.07173   0.62193   0.09674   1.000
    O433    O    0.97765   0.58199   0.10016   1.000
    O434    O    0.57832   0.12192   0.09674   1.000
    O435    O    0.48423   0.08199   0.10016   1.000
    O436    O    0.07173   0.12192   0.09674   1.000
    O437    O    0.97765   0.08199   0.10016   1.000
    O438    O    0.15795   0.15249   0.09701   1.000
    O439    O    0.15796   0.65249   0.09701   1.000
    O440    O    0.65797   0.15249   0.09701   1.000
    O441    O    0.65797   0.65249   0.09701   1.000
    O442    O    0.71865   0.85094   0.09425   1.000
    O443    O    0.71864   0.35094   0.09425   1.000
    O444    O    0.21863   0.35094   0.09425   1.000
    O445    O    0.21863   0.85094   0.09455   1.000
    O446    O    0.90745   0.55515   0.12230   1.000
    O447    O    0.00161   0.52816   0.13029   1.000
    O448    O    0.90745   0.05515   0.12229   1.000
    O449    O    0.00161   0.02815   0.13029   1.000
    O450    O    0.40744   0.55515   0.12230   1.000
    O451    O    0.50161   0.52816   0.13029   1.000
    O452    O    0.40744   0.05515   0.12230   1.000
    O453    O    0.50161   0.02815   0.13029   1.000
    O454    O    0.07658   0.98946   0.13906   1.000
    O455    O    0.57659   0.98946   0.13906   1.000
    O456    O    0.57658   0.48946   0.13907   1.000
    O457    O    0.07657   0.48946   0.13907   1.000
    O458    O    0.56776   0.01573   0.17722   1.000
    O459    O    0.06775   0.01573   0.17722   1.000
    O460    O    0.06775   0.51573   0.17722   1.000
    O461    O    0.56776   0.51573   0.17722   1.000
    O462    O    0.38249   0.31910   0.19124   1.000
    O463    O    0.30080   0.27180   0.19139   1.000
    O464    O    0.38250   0.81910   0.19124   1.000
    O465    O    0.30080   0.77180   0.19179   1.000
    O466    O    0.88251   0.31910   0.19090   1.000
    O467    O    0.80082   0.27179   0.19179   1.000
    O468    O    0.88252   0.81910   0.19124   1.000
    O469    O    0.80082   0.77180   0.19139   1.000
    O470    O    0.45724   0.36068   0.19437   1.000
    O471    O    0.95726   0.36068   0.19402   1.000
    O472    O    0.45725   0.86068   0.19437   1.000
    O473    O    0.95727   0.86068   0.19437   1.000
    O474    O    0.22958   0.22913   0.19568   1.000
    O475    O    0.22958   0.72914   0.19608   1.000
    O476    O    0.72959   0.22913   0.19608   1.000
    O477    O    0.72960   0.72914   0.19568   1.000
    O478    O    0.95246   0.33398   0.23445   1.000
    O479    O    0.63896   0.50329   0.22046   1.000
    O480    O    0.55786   0.55092   0.22077   1.000
    O481    O    0.63897   0.00329   0.22046   1.000
    O482    O    0.55785   0.05091   0.22078   1.000
    O483    O    0.13894   0.50329   0.22046   1.000
    O484    O    0.05784   0.55092   0.22077   1.000
    O485    O    0.13895   0.00329   0.22046   1.000
    O486    O    0.05784   0.05091   0.22078   1.000
    O487    O    0.45245   0.33398   0.23480   1.000
    O488    O    0.45246   0.83398   0.23481   1.000
    O489    O    0.95247   0.83398   0.23481   1.000
    O490    O    0.28965   0.23904   0.23531   1.000
    O491    O    0.78968   0.73905   0.23531   1.000
    O492    O    0.78967   0.23904   0.23570   1.000
    O493    O    0.28966   0.73905   0.23570   1.000
    O494    O    0.21434   0.46200   0.22393   1.000
    O495    O    0.21435   0.96200   0.22393   1.000
    O496    O    0.71435   0.46200   0.22393   1.000
    O497    O    0.71437   0.96200   0.22393   1.000
    O498    O    0.48893   0.09469   0.22539   1.000
    O499    O    0.48893   0.59470   0.22537   1.000
    O500    O    0.98892   0.09470   0.22539   1.000
    O501    O    0.98893   0.59470   0.22537   1.000
    O502    O    0.71045   0.98904   0.26428   1.000
    O503    O    0.71045   0.48905   0.26428   1.000
    O504    O    0.21043   0.98904   0.26419   1.000
    O505    O    0.21043   0.48904   0.26419   1.000
    O506    O    0.54765   0.58398   0.26510   1.000
    O507    O    0.04763   0.58398   0.26510   1.000
    O508    O    0.54764   0.08397   0.26512   1.000
    O509    O    0.04763   0.08397   0.26512   1.000
    O510    O    0.01116   0.34470   0.27458   1.000
    O511    O    0.94225   0.30092   0.27918   1.000
    O512    O    0.51116   0.34470   0.27458   1.000
    O513    O    0.44224   0.30092   0.27918   1.000
    O514    O    0.51117   0.84471   0.27460   1.000
    O515    O    0.44225   0.80093   0.27920   1.000
    O516    O    0.01117   0.84471   0.27460   1.000
    O517    O    0.94227   0.80093   0.27920   1.000
    O518    O    0.78576   0.21200   0.27605   1.000
    O519    O    0.86116   0.25329   0.27954   1.000
    O520    O    0.78578   0.71201   0.27607   1.000
    O521    O    0.86117   0.75330   0.27954   1.000
    O522    O    0.28575   0.21200   0.27605   1.000
    O523    O    0.36114   0.25329   0.27954   1.000
    O524    O    0.28575   0.71201   0.27607   1.000
    O525    O    0.36115   0.75330   0.27954   1.000
    O526    O    0.27051   0.97913   0.30381   1.000
    O527    O    0.19928   0.02180   0.30810   1.000
    O528    O    0.27051   0.47913   0.30381   1.000
    O529    O    0.19929   0.52180   0.30810   1.000
    O530    O    0.77053   0.97914   0.30391   1.000
    O531    O    0.69930   0.02180   0.30819   1.000
    O532    O    0.77053   0.47914   0.30391   1.000
    O533    O    0.69930   0.52180   0.30819   1.000
    O534    O    0.04283   0.11068   0.30557   1.000
    O535    O    0.11759   0.06910   0.30869   1.000
    O536    O    0.54285   0.61068   0.30557   1.000
    O537    O    0.61761   0.56911   0.30869   1.000
    O538    O    0.54284   0.11068   0.30557   1.000
    O539    O    0.61760   0.06910   0.30869   1.000
    O540    O    0.04283   0.61068   0.30557   1.000
    O541    O    0.11759   0.56910   0.30869   1.000
    O542    O    0.93237   0.76574   0.32277   1.000
    O543    O    0.93235   0.26573   0.32277   1.000
    O544    O    0.43235   0.76574   0.32277   1.000
    O545    O    0.43234   0.26573   0.32277   1.000
    O546    O    0.92355   0.73947   0.36092   1.000
    O547    O    0.99853   0.77816   0.36969   1.000
    O548    O    0.92353   0.23947   0.36092   1.000
    O549    O    0.99850   0.27816   0.36969   1.000
    O550    O    0.42354   0.73947   0.36092   1.000
    O551    O    0.49853   0.77816   0.36969   1.000
    O552    O    0.42352   0.23947   0.36092   1.000
    O553    O    0.49851   0.27816   0.36969   1.000
    O554    O    0.09267   0.30515   0.37765   1.000
    O555    O    0.59270   0.80515   0.37768   1.000
    O556    O    0.59268   0.30515   0.37768   1.000
    O557    O    0.09269   0.80515   0.37768   1.000
    O558    O    0.01590   0.33200   0.39982   1.000
    O559    O    0.06213   0.28312   0.40736   1.000
    O560    O    0.01593   0.83200   0.39982   1.000
    O561    O    0.06216   0.78313   0.40736   1.000
    O562    O    0.51592   0.33200   0.39982   1.000
    O563    O    0.56215   0.28313   0.40736   1.000
    O564    O    0.51594   0.83200   0.39982   1.000
    O565    O    0.56217   0.78313   0.40736   1.000
    O566    O    0.34219   0.40251   0.40298   1.000
    O567    O    0.42184   0.37194   0.40324   1.000
    O568    O    0.34222   0.90251   0.40298   1.000
    O569    O    0.42187   0.87194   0.40324   1.000
    O570    O    0.84221   0.40251   0.40298   1.000
    O571    O    0.92184   0.37194   0.40324   1.000
    O572    O    0.84223   0.90251   0.40298   1.000
    O573    O    0.92187   0.87194   0.40324   1.000
    O574    O    0.78148   0.60095   0.40538   1.000
    O575    O    0.76772   0.53111   0.41829   1.000
    O576    O    0.65356   0.57700   0.42301   1.000
    O577    O    0.78148   0.10094   0.40538   1.000
    O578    O    0.76773   0.03111   0.41829   1.000
    O579    O    0.65356   0.07700   0.42301   1.000
    O580    O    0.28146   0.60095   0.40543   1.000
    O581    O    0.26771   0.53111   0.41829   1.000
    O582    O    0.15355   0.57700   0.42301   1.000
    O583    O    0.28146   0.10094   0.40543   1.000
    O584    O    0.26771   0.03111   0.41829   1.000
    O585    O    0.15355   0.07700   0.42301   1.000
    O586    O    0.88884   0.62703   0.41308   1.000
    O587    O    0.88884   0.12703   0.41308   1.000
    O588    O    0.38882   0.62703   0.41312   1.000
    O589    O    0.38883   0.12703   0.41312   1.000
    O590    O    0.52554   0.38413   0.42701   1.000
    O591    O    0.02553   0.38413   0.42701   1.000
    O592    O    0.02556   0.88413   0.42701   1.000
    O593    O    0.52557   0.88413   0.42701   1.000
    O594    O    0.90649   0.99840   0.46654   1.000
    O595    O    0.90649   0.49840   0.46654   1.000
    O596    O    0.40649   0.49840   0.46654   1.000
    O597    O    0.40649   0.99840   0.46654   1.000
    O598    O    0.54233   0.54430   0.47128   1.000
    O599    O    0.54234   0.04429   0.47128   1.000
    O600    O    0.04232   0.54430   0.47128   1.000
    O601    O    0.04233   0.04429   0.47128   1.000
    O602    O    0.03208   0.45139   0.47134   1.000
    O603    O    0.03210   0.95139   0.47134   1.000
    O604    O    0.53209   0.45139   0.47134   1.000
    O605    O    0.53211   0.95139   0.47134   1.000
    O606    O    0.96812   0.54860   0.52863   1.000
    O607    O    0.95784   0.45570   0.52870   1.000
    O608    O    0.09368   0.50160   0.53344   1.000
    O609    O    0.96812   0.04860   0.52863   1.000
    O610    O    0.95785   0.95570   0.52870   1.000
    O611    O    0.09369   1.00000   0.53344   1.000
    O612    O    0.46812   0.04860   0.52863   1.000
    O613    O    0.45785   0.95570   0.52870   1.000
    O614    O    0.59370   1.00000   0.53344   1.000
    O615    O    0.46812   0.54860   0.52863   1.000
    O616    O    0.45783   0.45570   0.52870   1.000
    O617    O    0.59369   0.50160   0.53344   1.000
    O618    O    0.47467   0.11587   0.57295   1.000
    O619    O    0.47467   0.61587   0.57295   1.000
    O620    O    0.96808   0.11587   0.57295   1.000
    O621    O    0.96808   0.61587   0.57295   1.000
    O622    O    0.84660   0.42300   0.57695   1.000
    O623    O    0.34661   0.92300   0.57695   1.000
    O624    O    0.34659   0.42300   0.57695   1.000
    O625    O    0.84662   0.92300   0.57696   1.000
    O626    O    0.23244   0.46890   0.58169   1.000
    O627    O    0.23246   0.96730   0.58169   1.000
    O628    O    0.73245   0.46890   0.58169   1.000
    O629    O    0.73247   0.96730   0.58169   1.000
    O630    O    0.93802   0.71687   0.59259   1.000
    O631    O    0.43801   0.21687   0.59257   1.000
    O632    O    0.43801   0.71687   0.59259   1.000
    O633    O    0.93801   0.21687   0.59259   1.000
    O634    O    0.11131   0.37298   0.58685   1.000
    O635    O    0.11133   0.87298   0.58681   1.000
    O636    O    0.61135   0.87298   0.58685   1.000
    O637    O    0.61132   0.37298   0.58681   1.000
    O638    O    0.07175   0.12807   0.59673   1.000
    O639    O    0.97766   0.16800   0.60015   1.000
    O640    O    0.57836   0.62808   0.59673   1.000
    O641    O    0.48426   0.66801   0.60015   1.000
    O642    O    0.57835   0.12807   0.59673   1.000
    O643    O    0.48426   0.16800   0.60011   1.000
    O644    O    0.07175   0.62808   0.59673   1.000
    O645    O    0.97766   0.66801   0.60015   1.000
    O646    O    0.65801   0.59751   0.59700   1.000
    O647    O    0.65801   0.09751   0.59700   1.000
    O648    O    0.15800   0.59752   0.59700   1.000
    O649    O    0.15800   0.09751   0.59700   1.000
    O650    O    0.21870   0.89906   0.59450   1.000
    O651    O    0.71869   0.39906   0.59450   1.000
    O652    O    0.21868   0.39906   0.59454   1.000
    O653    O    0.71871   0.89906   0.59455   1.000
    O654    O    0.40746   0.19484   0.62225   1.000
    O655    O    0.50162   0.22184   0.63024   1.000
    O656    O    0.90748   0.69485   0.62228   1.000
    O657    O    0.00163   0.72185   0.63028   1.000
    O658    O    0.90747   0.19484   0.62228   1.000
    O659    O    0.00162   0.22184   0.63028   1.000
    O660    O    0.40747   0.69485   0.62228   1.000
    O661    O    0.50163   0.72185   0.63028   1.000
    O662    O    0.57661   0.76054   0.63904   1.000
    O663    O    0.07659   0.76054   0.63904   1.000
    O664    O    0.57660   0.26054   0.63905   1.000
    O665    O    0.07657   0.26054   0.63905   1.000
    O666    O    0.06775   0.23427   0.67719   1.000
    O667    O    0.06776   0.73428   0.67719   1.000
    O668    O    0.56777   0.23427   0.67720   1.000
    O669    O    0.56778   0.73427   0.67720   1.000
    O670    O    0.88256   0.93090   0.69124   1.000
    O671    O    0.80086   0.97579   0.69174   1.000
    O672    O    0.88253   0.43090   0.69124   1.000
    O673    O    0.80084   0.47820   0.69174   1.000
    O674    O    0.38254   0.93090   0.69124   1.000
    O675    O    0.30084   0.97579   0.69178   1.000
    O676    O    0.38252   0.43090   0.69124   1.000
    O677    O    0.30082   0.47820   0.69178   1.000
    O678    O    0.95729   0.38932   0.69437   1.000
    O679    O    0.45730   0.88932   0.69437   1.000
    O680    O    0.45728   0.38932   0.69437   1.000
    O681    O    0.95731   0.88932   0.69437   1.000
    O682    O    0.22960   0.01845   0.69604   1.000
    O683    O    0.22959   0.52086   0.69604   1.000
    O684    O    0.72962   0.01845   0.69600   1.000
    O685    O    0.72961   0.52087   0.69602   1.000
    O686    O    0.13894   0.24671   0.72044   1.000
    O687    O    0.05784   0.19908   0.72076   1.000
    O688    O    0.13895   0.74671   0.72044   1.000
    O689    O    0.05784   0.69909   0.72076   1.000
    O690    O    0.63896   0.24671   0.72044   1.000
    O691    O    0.55785   0.19908   0.72076   1.000
    O692    O    0.63896   0.74671   0.72044   1.000
    O693    O    0.55786   0.69909   0.72076   1.000
    O694    O    0.45246   0.41602   0.73481   1.000
    O695    O    0.45249   0.91603   0.73479   1.000
    O696    O    0.95248   0.41602   0.73481   1.000
    O697    O    0.95250   0.91603   0.73479   1.000
    O698    O    0.78968   0.00855   0.73564   1.000
    O699    O    0.78968   0.51096   0.73564   1.000
    O700    O    0.28966   0.00854   0.73568   1.000
    O701    O    0.28966   0.51096   0.73568   1.000
    O702    O    0.21433   0.28800   0.72391   1.000
    O703    O    0.71436   0.78800   0.72391   1.000
    O704    O    0.71435   0.28800   0.72391   1.000
    O705    O    0.21434   0.78800   0.72391   1.000
    O706    O    0.48893   0.15530   0.72537   1.000
    O707    O    0.98893   0.65531   0.72537   1.000
    O708    O    0.48893   0.65531   0.72537   1.000
    O709    O    0.98892   0.15530   0.72537   1.000
    O710    O    0.71043   0.26095   0.76428   1.000
    O711    O    0.21043   0.76096   0.76428   1.000
    O712    O    0.21042   0.26096   0.76428   1.000
    O713    O    0.71044   0.76096   0.76428   1.000
    O714    O    0.54764   0.66603   0.76515   1.000
    O715    O    0.54763   0.16602   0.76515   1.000
    O716    O    0.04763   0.66603   0.76515   1.000
    O717    O    0.04762   0.16602   0.76511   1.000
    O718    O    0.01119   0.90531   0.77458   1.000
    O719    O    0.94227   0.94909   0.77918   1.000
    O720    O    0.51119   0.90531   0.77458   1.000
    O721    O    0.44226   0.94909   0.77918   1.000
    O722    O    0.01117   0.40530   0.77459   1.000
    O723    O    0.94226   0.44908   0.77919   1.000
    O724    O    0.51117   0.40530   0.77457   1.000
    O725    O    0.44224   0.44908   0.77919   1.000
    O726    O    0.28573   0.03800   0.77604   1.000
    O727    O    0.36114   0.99671   0.77952   1.000
    O728    O    0.28574   0.53800   0.77604   1.000
    O729    O    0.36113   0.49671   0.77952   1.000
    O730    O    0.78575   0.03800   0.77604   1.000
    O731    O    0.86116   0.99671   0.77952   1.000
    O732    O    0.78576   0.53800   0.77604   1.000
    O733    O    0.86115   0.49671   0.77952   1.000
    O734    O    0.27049   0.27087   0.80390   1.000
    O735    O    0.19927   0.22820   0.80818   1.000
    O736    O    0.77052   0.77087   0.80390   1.000
    O737    O    0.69929   0.72821   0.80818   1.000
    O738    O    0.77051   0.27086   0.80390   1.000
    O739    O    0.69928   0.22820   0.80818   1.000
    O740    O    0.27050   0.77087   0.80390   1.000
    O741    O    0.19927   0.72821   0.80818   1.000
    O742    O    0.04281   0.13932   0.80556   1.000
    O743    O    0.11757   0.18090   0.80869   1.000
    O744    O    0.54283   0.63933   0.80560   1.000
    O745    O    0.61759   0.68090   0.80873   1.000
    O746    O    0.54283   0.13932   0.80560   1.000
    O747    O    0.61758   0.18090   0.80873   1.000
    O748    O    0.04282   0.63933   0.80560   1.000
    O749    O    0.11758   0.68090   0.80873   1.000
    O750    O    0.43233   0.98427   0.82276   1.000
    O751    O    0.93234   0.48427   0.82276   1.000
    O752    O    0.43232   0.48427   0.82276   1.000
    O753    O    0.93235   0.98427   0.82276   1.000
    O754    O    0.42349   0.01054   0.86091   1.000
    O755    O    0.49848   0.97185   0.86969   1.000
    O756    O    0.92351   0.01054   0.86091   1.000
    O757    O    0.99848   0.97185   0.86969   1.000
    O758    O    0.92351   0.51054   0.86091   1.000
    O759    O    0.99848   0.47184   0.86954   1.000
    O760    O    0.42349   0.51054   0.86091   1.000
    O761    O    0.49847   0.47184   0.86954   1.000
    O762    O    0.09264   0.44485   0.87754   1.000
    O763    O    0.59264   0.44485   0.87754   1.000
    O764    O    0.59265   0.94486   0.87768   1.000
    O765    O    0.09264   0.94486   0.87769   1.000
    O766    O    0.01585   0.41800   0.89966   1.000
    O767    O    0.06208   0.46687   0.90721   1.000
    O768    O    0.51586   0.41800   0.89966   1.000
    O769    O    0.56208   0.46687   0.90721   1.000
    O770    O    0.51587   0.91801   0.89982   1.000
    O771    O    0.56210   0.96688   0.90736   1.000
    O772    O    0.01586   0.91801   0.89982   1.000
    O773    O    0.06208   0.96688   0.90736   1.000
    O774    O    0.34213   0.34750   0.90297   1.000
    O775    O    0.42178   0.37807   0.90324   1.000
    O776    O    0.84215   0.84750   0.90297   1.000
    O777    O    0.92179   0.87807   0.90324   1.000
    O778    O    0.84214   0.34750   0.90297   1.000
    O779    O    0.92178   0.37807   0.90324   1.000
    O780    O    0.34214   0.84751   0.90297   1.000
    O781    O    0.42179   0.87807   0.90324   1.000
    O782    O    0.78144   0.14906   0.90542   1.000
    O783    O    0.76768   0.21889   0.91827   1.000
    O784    O    0.65353   0.17300   0.92301   1.000
    O785    O    0.28144   0.64906   0.90542   1.000
    O786    O    0.26768   0.71890   0.91827   1.000
    O787    O    0.15352   0.67300   0.92301   1.000
    O788    O    0.28143   0.14905   0.90542   1.000
    O789    O    0.26767   0.21889   0.91827   1.000
    O790    O    0.15352   0.17300   0.92301   1.000
    O791    O    0.78145   0.64906   0.90542   1.000
    O792    O    0.76769   0.71890   0.91827   1.000
    O793    O    0.65354   0.67300   0.92301   1.000
    O794    O    0.88882   0.62297   0.91311   1.000
    O795    O    0.88881   0.12297   0.91309   1.000
    O796    O    0.38880   0.62297   0.91311   1.000
    O797    O    0.38880   0.12297   0.91309   1.000
    O798    O    0.02547   0.86587   0.92700   1.000
    O799    O    0.02546   0.36587   0.92700   1.000
    O800    O    0.52547   0.36587   0.92700   1.000
    O801    O    0.52548   0.86587   0.92700   1.000
    O802    O    0.40645   0.75160   0.96654   1.000
    O803    O    0.90645   0.75160   0.96654   1.000
    O804    O    0.54230   0.70570   0.97127   1.000
    O805    O    0.04229   0.70570   0.97127   1.000
    O806    O    0.53204   0.79861   0.97133   1.000
    O807    O    0.03203   0.79861   0.97133   1.000
loop_
    _geom_bond_atom_site_label_1
    _geom_bond_atom_site_label_2
    _geom_bond_distance
    _geom_bond_site_symmetry_2
    _ccdc_geom_bond_type
    C4     O392      1.20576  1_455   S
    C370   O392      1.20576      .   S
    C4     O393      1.17569  1_455   S
    C374   O393      1.17569      .   S
    C4     O394      1.15197      .   S
    C380   O394      1.15197      .   S
    C4     O395      1.15209  1_454   S
    C342   O395      1.15209      .   S
    C4     O396      1.17596  1_554   S
    C332   O396      1.17596      .   S
    C4     O397      1.20589  1_554   S
    C328   O397      1.20589      .   S
    C6     O398      1.20581      .   S
    C368   O398      1.20581      .   S
    C6     O399      1.17573      .   S
    C372   O399      1.17573      .   S
    C6     O400      1.15197      .   S
    C382   O400      1.15197      .   S
    C6     O401      1.15218  1_554   S
    C340   O401      1.15218      .   S
    C6     O402      1.17596  1_554   S
    C334   O402      1.17596      .   S
    C6     O403      1.20589  1_554   S
    C330   O403      1.20589      .   S
    C371   O404      0.58714      .   S
    C263   O404      0.58714  1_455   S
    C371   O405      1.20579      .   S
    C5     O405      1.20579  1_456   S
    C369   O406      0.62068      .   S
    C261   O406      0.62068      .   S
    C369   O407      1.20584      .   S
    C7     O407      1.20584  1_556   S
    C370   O408      0.58713      .   S
    C262   O408      0.58713  1_455   S
    C368   O409      0.62065      .   S
    C260   O409      0.62065      .   S
    C375   O410      0.85562      .   S
    C23    O410      0.85562      .   S
    C375   O411      1.17576      .   S
    C5     O411      1.17576  1_456   S
    C374   O412      0.85561      .   S
    C22    O412      0.85561      .   S
    C373   O413      0.85563      .   S
    C21    O413      0.85563      .   S
    C373   O414      1.17580      .   S
    C7     O414      1.17580  1_556   S
    C372   O415      0.85562      .   S
    C20    O415      0.85562      .   S
    C381   O416      0.85814      .   S
    C21    O416      0.85814      .   S
    C381   O417      1.15203      .   S
    C5     O417      1.15203  1_556   S
    C380   O418      0.85815      .   S
    C20    O418      0.85815      .   S
    C382   O419      0.85815      .   S
    C22    O419      0.85815      .   S
    C383   O420      0.85815      .   S
    C23    O420      0.85815      .   S
    C383   O421      1.15203      .   S
    C7     O421      1.15203  1_556   S
    C129   O422      0.54976      .   S
    C257   O422      0.54976      .   S
    C128   O423      0.54977      .   S
    C256   O423      0.54977      .   S
    C130   O424      0.54977      .   S
    C258   O424      0.54977      .   S
    C131   O425      0.54975      .   S
    C259   O425      0.54975      .   S
    C139   O426      0.51100      .   S
    C379   O426      0.51100      .   S
    C138   O427      0.51100      .   S
    C378   O427      0.51100      .   S
    C136   O428      0.51100      .   S
    C376   O428      0.51100      .   S
    C137   O429      0.51235      .   S
    C377   O429      0.51235      .   S
    C261   O430      0.65716      .   S
    C367   O430      0.65716      .   S
    C261   O431      0.76386      .   S
    C257   O431      0.76386      .   S
    C263   O432      0.71711      .   S
    C365   O432      0.71711      .   S
    C263   O433      0.74165  1_455   S
    C259   O433      0.74165      .   S
    C260   O434      0.65715      .   S
    C366   O434      0.65715      .   S
    C260   O435      0.76387      .   S
    C256   O435      0.76387      .   S
    C262   O436      0.71709      .   S
    C364   O436      0.71709      .   S
    C262   O437      0.74166  1_455   S
    C258   O437      0.74166      .   S
    C104   O438      0.52552      .   S
    C364   O438      0.52552      .   S
    C105   O439      0.52552      .   S
    C365   O439      0.52552      .   S
    C106   O440      0.52552      .   S
    C366   O440      0.52552      .   S
    C107   O441      0.52552      .   S
    C367   O441      0.52552      .   S
    C379   O442      0.89623      .   S
    C23    O442      0.89623      .   S
    C378   O443      0.89623      .   S
    C22    O443      0.89623      .   S
    C376   O444      0.89622      .   S
    C20    O444      0.89622      .   S
    C377   O445      0.89611      .   S
    C21    O445      0.89611      .   S
    C259   O446      0.55041      .   S
    C127   O446      0.55041      .   S
    C259   O447      0.72013  1_655   S
    C305   O447      0.72013      .   S
    C258   O448      0.55035      .   S
    C126   O448      0.55035      .   S
    C258   O449      0.72010  1_655   S
    C304   O449      0.72010      .   S
    C257   O450      0.55041      .   S
    C125   O450      0.55041      .   S
    C257   O451      0.72020      .   S
    C307   O451      0.72020      .   S
    C256   O452      0.55040      .   S
    C124   O452      0.55040      .   S
    C256   O453      0.72019      .   S
    C306   O453      0.72019      .   S
    C97    O454      0.51308      .   S
    C304   O454      0.51308  1_545   S
    C99    O455      0.51308      .   S
    C306   O455      0.51308  1_545   S
    C98    O456      0.51289      .   S
    C307   O456      0.51289      .   S
    C96    O457      0.51290      .   S
    C305   O457      0.51290      .   S
    C306   O458      0.68623      .   S
    C246   O458      0.68623      .   S
    C304   O459      0.68623      .   S
    C244   O459      0.68623      .   S
    C305   O460      0.68623      .   S
    C245   O460      0.68623      .   S
    C307   O461      0.68623      .   S
    C247   O461      0.68623      .   S
    C264   O462      0.70079      .   S
    C268   O462      0.70079      .   S
    C264   O463      0.69705      .   S
    C284   O463      0.69705      .   S
    C265   O464      0.70079      .   S
    C269   O464      0.70079      .   S
    C265   O465      0.70177      .   S
    C285   O465      0.70177      .   S
    C266   O466      0.69738      .   S
    C270   O466      0.69738      .   S
    C266   O467      0.70172      .   S
    C286   O467      0.70172      .   S
    C267   O468      0.70079      .   S
    C271   O468      0.70079      .   S
    C267   O469      0.69705      .   S
    C287   O469      0.69705      .   S
    C144   O470      0.54447      .   S
    C268   O470      0.54447      .   S
    C146   O471      0.54051      .   S
    C270   O471      0.54051      .   S
    C145   O472      0.54448      .   S
    C269   O472      0.54448      .   S
    C147   O473      0.54447      .   S
    C271   O473      0.54447      .   S
    C156   O474      0.54050      .   S
    C284   O474      0.54050      .   S
    C157   O475      0.54423      .   S
    C285   O475      0.54423      .   S
    C158   O476      0.54418      .   S
    C286   O476      0.54418      .   S
    C159   O477      0.54050      .   S
    C287   O477      0.54050      .   S
    C270   O478      0.70227      .   S
    C274   O478      0.70227      .   S
    C247   O479      0.70824      .   S
    C250   O479      0.70824      .   S
    C247   O480      0.70710      .   S
    C243   O480      0.70710      .   S
    C246   O481      0.70826      .   S
    C251   O481      0.70826  1_565   S
    C246   O482      0.70733      .   S
    C242   O482      0.70733      .   S
    C245   O483      0.70823      .   S
    C248   O483      0.70823      .   S
    C245   O484      0.70709      .   S
    C241   O484      0.70709      .   S
    C244   O485      0.70826      .   S
    C249   O485      0.70826  1_565   S
    C244   O486      0.70733      .   S
    C240   O486      0.70733      .   S
    C268   O487      0.69472      .   S
    C272   O487      0.69472      .   S
    C269   O488      0.69516      .   S
    C273   O488      0.69516      .   S
    C271   O489      0.69516      .   S
    C275   O489      0.69516      .   S
    C284   O490      0.70138      .   S
    C280   O490      0.70138      .   S
    C287   O491      0.70139      .   S
    C283   O491      0.70139      .   S
    C286   O492      0.69278      .   S
    C282   O492      0.69278      .   S
    C285   O493      0.69268      .   S
    C281   O493      0.69268      .   S
    C116   O494      0.54498      .   S
    C248   O494      0.54498      .   S
    C117   O495      0.54497      .   S
    C249   O495      0.54497      .   S
    C118   O496      0.54497      .   S
    C250   O496      0.54497      .   S
    C119   O497      0.54496      .   S
    C251   O497      0.54496      .   S
    C112   O498      0.54422      .   S
    C242   O498      0.54422      .   S
    C113   O499      0.54403      .   S
    C243   O499      0.54403      .   S
    C114   O500      0.54414      .   S
    C240   O500      0.54414  1_455   S
    C115   O501      0.54395      .   S
    C241   O501      0.54395  1_455   S
    C251   O502      0.69267      .   S
    C254   O502      0.69267      .   S
    C250   O503      0.69269      .   S
    C255   O503      0.69269      .   S
    C249   O504      0.69061      .   S
    C252   O504      0.69061      .   S
    C248   O505      0.69062      .   S
    C253   O505      0.69062      .   S
    C243   O506      0.69463      .   S
    C239   O506      0.69463      .   S
    C241   O507      0.69463      .   S
    C237   O507      0.69463      .   S
    C242   O508      0.69420      .   S
    C238   O508      0.69420      .   S
    C240   O509      0.69420      .   S
    C236   O509      0.69420      .   S
    C274   O510      0.54434  1_655   S
    C148   O510      0.54434      .   S
    C274   O511      0.70759      .   S
    C278   O511      0.70759      .   S
    C272   O512      0.54442      .   S
    C150   O512      0.54442      .   S
    C272   O513      0.70760      .   S
    C276   O513      0.70760      .   S
    C273   O514      0.54424      .   S
    C151   O514      0.54424      .   S
    C273   O515      0.70735      .   S
    C277   O515      0.70735      .   S
    C275   O516      0.54416  1_655   S
    C149   O516      0.54416      .   S
    C275   O517      0.70735      .   S
    C279   O517      0.70735      .   S
    C282   O518      0.54488      .   S
    C154   O518      0.54488      .   S
    C282   O519      0.70825      .   S
    C278   O519      0.70825      .   S
    C283   O520      0.54499      .   S
    C155   O520      0.54499      .   S
    C283   O521      0.70826      .   S
    C279   O521      0.70826      .   S
    C280   O522      0.54488      .   S
    C152   O522      0.54488      .   S
    C280   O523      0.70826      .   S
    C276   O523      0.70826      .   S
    C281   O524      0.54499      .   S
    C153   O524      0.54499      .   S
    C281   O525      0.70826      .   S
    C277   O525      0.70826      .   S
    C252   O526      0.54514      .   S
    C121   O526      0.54514      .   S
    C252   O527      0.70288  1_565   S
    C232   O527      0.70288      .   S
    C253   O528      0.54510      .   S
    C120   O528      0.54510      .   S
    C253   O529      0.70289      .   S
    C233   O529      0.70289      .   S
    C254   O530      0.54423      .   S
    C123   O530      0.54423      .   S
    C254   O531      0.70175  1_565   S
    C234   O531      0.70175      .   S
    C255   O532      0.54420      .   S
    C122   O532      0.54420      .   S
    C255   O533      0.70176      .   S
    C235   O533      0.70176      .   S
    C236   O534      0.54502      .   S
    C108   O534      0.54502      .   S
    C236   O535      0.70123      .   S
    C232   O535      0.70123      .   S
    C239   O536      0.54503      .   S
    C111   O536      0.54503      .   S
    C239   O537      0.70122      .   S
    C235   O537      0.70122      .   S
    C238   O538      0.54503      .   S
    C110   O538      0.54503      .   S
    C238   O539      0.70122      .   S
    C234   O539      0.70122      .   S
    C237   O540      0.54504      .   S
    C109   O540      0.54504      .   S
    C237   O541      0.70123      .   S
    C233   O541      0.70123      .   S
    C279   O542      0.68622      .   S
    C311   O542      0.68622      .   S
    C278   O543      0.68621      .   S
    C310   O543      0.68621      .   S
    C277   O544      0.68622      .   S
    C309   O544      0.68622      .   S
    C276   O545      0.68622      .   S
    C308   O545      0.68622      .   S
    C311   O546      0.51287      .   S
    C135   O546      0.51287      .   S
    C311   O547      0.72012      .   S
    C289   O547      0.72012  1_455   S
    C310   O548      0.51287      .   S
    C134   O548      0.51287      .   S
    C310   O549      0.72011      .   S
    C288   O549      0.72011  1_455   S
    C309   O550      0.51286      .   S
    C133   O550      0.51286      .   S
    C309   O551      0.72020      .   S
    C291   O551      0.72020      .   S
    C308   O552      0.51287      .   S
    C132   O552      0.51287      .   S
    C308   O553      0.72019      .   S
    C290   O553      0.72019      .   S
    C160   O554      0.55075      .   S
    C288   O554      0.55075      .   S
    C163   O555      0.55039      .   S
    C291   O555      0.55039      .   S
    C162   O556      0.55040      .   S
    C290   O556      0.55040      .   S
    C161   O557      0.55040      .   S
    C289   O557      0.55040      .   S
    C288   O558      0.76386      .   S
    C292   O558      0.76386  1_655   S
    C288   O559      0.54977      .   S
    C164   O559      0.54977      .   S
    C289   O560      0.76385      .   S
    C293   O560      0.76385  1_655   S
    C289   O561      0.54978      .   S
    C165   O561      0.54978      .   S
    C290   O562      0.76385      .   S
    C294   O562      0.76385      .   S
    C290   O563      0.54978      .   S
    C166   O563      0.54978      .   S
    C291   O564      0.76384      .   S
    C295   O564      0.76384      .   S
    C291   O565      0.54970      .   S
    C167   O565      0.54970      .   S
    C384   O566      0.52548      .   S
    C140   O566      0.52548      .   S
    C384   O567      0.65714      .   S
    C294   O567      0.65714      .   S
    C385   O568      0.52549      .   S
    C141   O568      0.52549      .   S
    C385   O569      0.65714      .   S
    C295   O569      0.65714      .   S
    C386   O570      0.52548      .   S
    C142   O570      0.52548      .   S
    C386   O571      0.65702      .   S
    C292   O571      0.65702      .   S
    C387   O572      0.52548      .   S
    C143   O572      0.52548      .   S
    C387   O573      0.65702      .   S
    C293   O573      0.65702      .   S
    C19    O574      0.89610      .   S
    C359   O574      0.89610      .   S
    C19    O575      0.85821      .   S
    C363   O575      0.85821      .   S
    C19    O576      0.85569      .   S
    C355   O576      0.85569      .   S
    C18    O577      0.89610      .   S
    C358   O577      0.89610      .   S
    C18    O578      0.85820      .   S
    C362   O578      0.85820  1_565   S
    C18    O579      0.85569      .   S
    C354   O579      0.85569      .   S
    C17    O580      0.89612      .   S
    C357   O580      0.89612      .   S
    C17    O581      0.85822      .   S
    C361   O581      0.85822      .   S
    C17    O582      0.85568      .   S
    C353   O582      0.85568      .   S
    C16    O583      0.89612      .   S
    C356   O583      0.89612      .   S
    C16    O584      0.85821      .   S
    C360   O584      0.85821  1_565   S
    C16    O585      0.85568      .   S
    C352   O585      0.85568      .   S
    C359   O586      0.51255      .   S
    C103   O586      0.51255      .   S
    C358   O587      0.51255      .   S
    C102   O587      0.51255      .   S
    C357   O588      0.51236      .   S
    C101   O588      0.51236      .   S
    C356   O589      0.51236      .   S
    C100   O589      0.51236      .   S
    C294   O590      0.62068      .   S
    C390   O590      0.62068      .   S
    C292   O591      0.62069  1_655   S
    C388   O591      0.62069      .   S
    C293   O592      0.62069  1_655   S
    C389   O592      0.62069      .   S
    C295   O593      0.62068      .   S
    C391   O593      0.62068      .   S
    C362   O594      1.15196      .   S
    C0     O594      1.15196  1_455   S
    C363   O595      1.15195      .   S
    C1     O595      1.15195  1_455   S
    C361   O596      1.15204      .   S
    C3     O596      1.15204      .   S
    C360   O597      1.15205      .   S
    C2     O597      1.15205      .   S
    C355   O598      1.17576      .   S
    C3     O598      1.17576      .   S
    C354   O599      1.17576      .   S
    C2     O599      1.17576  1_565   S
    C353   O600      1.17576      .   S
    C1     O600      1.17576      .   S
    C352   O601      1.17576      .   S
    C0     O601      1.17576  1_565   S
    C388   O602      1.20592      .   S
    C1     O602      1.20592      .   S
    C389   O603      1.20590      .   S
    C0     O603      1.20590      .   S
    C390   O604      1.20592      .   S
    C3     O604      1.20592      .   S
    C391   O605      1.20591      .   S
    C2     O605      1.20591      .   S
    C1     O606      1.20574  1_455   S
    C351   O606      1.20574      .   S
    C1     O607      1.17561  1_455   S
    C314   O607      1.17561      .   S
    C1     O608      1.15196      .   S
    C320   O608      1.15196      .   S
    C0     O609      1.20574  1_465   S
    C350   O609      1.20574      .   S
    C0     O610      1.17562  1_455   S
    C315   O610      1.17562      .   S
    C0     O611      1.15158      .   S
    C321   O611      1.15158  1_545   S
    C2     O612      1.20577  1_565   S
    C348   O612      1.20577      .   S
    C2     O613      1.17560      .   S
    C313   O613      1.17560      .   S
    C2     O614      1.15159      .   S
    C323   O614      1.15159  1_545   S
    C3     O615      1.20577      .   S
    C349   O615      1.20577      .   S
    C3     O616      1.17566      .   S
    C312   O616      1.17566      .   S
    C3     O617      1.15197      .   S
    C322   O617      1.15197      .   S
    C348   O618      0.62069      .   S
    C228   O618      0.62069      .   S
    C349   O619      0.62071      .   S
    C229   O619      0.62071      .   S
    C350   O620      0.58709      .   S
    C230   O620      0.58709  1_455   S
    C351   O621      0.58709      .   S
    C231   O621      0.58709  1_455   S
    C314   O622      0.85576      .   S
    C10    O622      0.85576      .   S
    C313   O623      0.85584      .   S
    C9     O623      0.85584      .   S
    C312   O624      0.85576      .   S
    C8     O624      0.85576      .   S
    C315   O625      0.85576      .   S
    C11    O625      0.85576      .   S
    C320   O626      0.85819      .   S
    C8     O626      0.85819      .   S
    C321   O627      0.83411  1_545   S
    C9     O627      0.83411      .   S
    C322   O628      0.85819      .   S
    C10    O628      0.85819      .   S
    C323   O629      0.83411  1_545   S
    C11    O629      0.83411      .   S
    C95    O630      0.54975      .   S
    C227   O630      0.54975      .   S
    C92    O631      0.54921      .   S
    C224   O631      0.54921      .   S
    C93    O632      0.54974      .   S
    C225   O632      0.54974      .   S
    C94    O633      0.54975      .   S
    C226   O633      0.54975      .   S
    C28    O634      0.51237      .   S
    C316   O634      0.51237      .   S
    C29    O635      0.51217      .   S
    C317   O635      0.51217      .   S
    C31    O636      0.51238      .   S
    C319   O636      0.51238      .   S
    C30    O637      0.51217      .   S
    C318   O637      0.51217      .   S
    C230   O638      0.71727      .   S
    C344   O638      0.71727      .   S
    C230   O639      0.74156  1_455   S
    C226   O639      0.74156      .   S
    C229   O640      0.65715      .   S
    C347   O640      0.65715      .   S
    C229   O641      0.76385      .   S
    C225   O641      0.76385      .   S
    C228   O642      0.65715      .   S
    C346   O642      0.65715      .   S
    C228   O643      0.76359      .   S
    C224   O643      0.76359      .   S
    C231   O644      0.71727      .   S
    C345   O644      0.71727      .   S
    C231   O645      0.74157  1_455   S
    C227   O645      0.74157      .   S
    C71    O646      0.52552      .   S
    C347   O646      0.52552      .   S
    C70    O647      0.52551      .   S
    C346   O647      0.52551      .   S
    C69    O648      0.52551      .   S
    C345   O648      0.52551      .   S
    C68    O649      0.52551      .   S
    C344   O649      0.52551      .   S
    C317   O650      0.89613      .   S
    C9     O650      0.89613      .   S
    C318   O651      0.89612      .   S
    C10    O651      0.89612      .   S
    C316   O652      0.89610      .   S
    C8     O652      0.89610      .   S
    C319   O653      0.89610      .   S
    C11    O653      0.89610      .   S
    C224   O654      0.55075      .   S
    C88    O654      0.55075      .   S
    C224   O655      0.72059      .   S
    C302   O655      0.72059      .   S
    C227   O656      0.55040      .   S
    C91    O656      0.55040      .   S
    C227   O657      0.72013  1_655   S
    C301   O657      0.72013      .   S
    C226   O658      0.55040      .   S
    C90    O658      0.55040      .   S
    C226   O659      0.72013  1_655   S
    C300   O659      0.72013      .   S
    C225   O660      0.55040      .   S
    C89    O660      0.55040      .   S
    C225   O661      0.72020      .   S
    C303   O661      0.72020      .   S
    C63    O662      0.51294      .   S
    C303   O662      0.51294      .   S
    C61    O663      0.51293      .   S
    C301   O663      0.51293      .   S
    C62    O664      0.51284      .   S
    C302   O664      0.51284      .   S
    C60    O665      0.51283      .   S
    C300   O665      0.51283      .   S
    C300   O666      0.68611      .   S
    C212   O666      0.68611      .   S
    C301   O667      0.68610      .   S
    C213   O667      0.68610      .   S
    C302   O668      0.68621      .   S
    C214   O668      0.68621      .   S
    C303   O669      0.68621      .   S
    C215   O669      0.68621      .   S
    C171   O670      0.70079      .   S
    C175   O670      0.70079      .   S
    C171   O671      0.66720      .   S
    C191   O671      0.66720  1_545   S
    C170   O672      0.70080      .   S
    C174   O672      0.70080      .   S
    C170   O673      0.70130      .   S
    C190   O673      0.70130      .   S
    C169   O674      0.70080      .   S
    C173   O674      0.70080      .   S
    C169   O675      0.66771      .   S
    C189   O675      0.66771  1_545   S
    C168   O676      0.70080      .   S
    C172   O676      0.70080      .   S
    C168   O677      0.70177      .   S
    C188   O677      0.70177      .   S
    C38    O678      0.54452      .   S
    C174   O678      0.54452      .   S
    C37    O679      0.54451      .   S
    C173   O679      0.54451      .   S
    C36    O680      0.54452      .   S
    C172   O680      0.54452      .   S
    C39    O681      0.54451      .   S
    C175   O681      0.54451      .   S
    C48    O682      0.57279      .   S
    C189   O682      0.57279      .   S
    C49    O683      0.54442      .   S
    C188   O683      0.54442      .   S
    C50    O684      0.57243      .   S
    C191   O684      0.57243      .   S
    C51    O685      0.54386      .   S
    C190   O685      0.54386      .   S
    C212   O686      0.70834      .   S
    C216   O686      0.70834      .   S
    C212   O687      0.70738      .   S
    C208   O687      0.70738      .   S
    C213   O688      0.70833      .   S
    C217   O688      0.70833      .   S
    C213   O689      0.70738      .   S
    C209   O689      0.70738      .   S
    C214   O690      0.70828      .   S
    C218   O690      0.70828      .   S
    C214   O691      0.70731      .   S
    C210   O691      0.70731      .   S
    C215   O692      0.70828      .   S
    C219   O692      0.70828      .   S
    C215   O693      0.70730      .   S
    C211   O693      0.70730      .   S
    C172   O694      0.69515      .   S
    C176   O694      0.69515      .   S
    C173   O695      0.69472      .   S
    C177   O695      0.69472      .   S
    C174   O696      0.69515      .   S
    C178   O696      0.69515      .   S
    C175   O697      0.69472      .   S
    C179   O697      0.69472      .   S
    C191   O698      0.70317      .   S
    C186   O698      0.70317      .   S
    C190   O699      0.69353      .   S
    C187   O699      0.69353      .   S
    C189   O700      0.70230      .   S
    C184   O700      0.70230      .   S
    C188   O701      0.69267      .   S
    C185   O701      0.69267      .   S
    C80    O702      0.54501      .   S
    C216   O702      0.54501      .   S
    C83    O703      0.54501      .   S
    C219   O703      0.54501      .   S
    C82    O704      0.54501      .   S
    C218   O704      0.54501      .   S
    C81    O705      0.54501      .   S
    C217   O705      0.54501      .   S
    C76    O706      0.54417      .   S
    C210   O706      0.54417      .   S
    C79    O707      0.54409      .   S
    C209   O707      0.54409  1_455   S
    C77    O708      0.54417      .   S
    C211   O708      0.54417      .   S
    C78    O709      0.54410      .   S
    C208   O709      0.54410  1_455   S
    C218   O710      0.69267      .   S
    C222   O710      0.69267      .   S
    C217   O711      0.69266      .   S
    C221   O711      0.69266      .   S
    C216   O712      0.69267      .   S
    C220   O712      0.69267      .   S
    C219   O713      0.69267      .   S
    C223   O713      0.69267      .   S
    C211   O714      0.69516      .   S
    C207   O714      0.69516      .   S
    C210   O715      0.69515      .   S
    C206   O715      0.69515      .   S
    C209   O716      0.69515      .   S
    C205   O716      0.69515      .   S
    C208   O717      0.69439      .   S
    C204   O717      0.69439      .   S
    C179   O718      0.54435  1_655   S
    C41    O718      0.54435      .   S
    C179   O719      0.70759      .   S
    C183   O719      0.70759      .   S
    C177   O720      0.54443      .   S
    C43    O720      0.54443      .   S
    C177   O721      0.70759      .   S
    C181   O721      0.70759      .   S
    C178   O722      0.54412  1_655   S
    C40    O722      0.54412      .   S
    C178   O723      0.70735      .   S
    C182   O723      0.70735      .   S
    C176   O724      0.54396      .   S
    C42    O724      0.54396      .   S
    C176   O725      0.70734      .   S
    C180   O725      0.70734      .   S
    C184   O726      0.54498      .   S
    C44    O726      0.54498      .   S
    C184   O727      0.70829  1_545   S
    C181   O727      0.70829      .   S
    C185   O728      0.54498      .   S
    C45    O728      0.54498      .   S
    C185   O729      0.70827      .   S
    C180   O729      0.70827      .   S
    C186   O730      0.54498      .   S
    C46    O730      0.54498      .   S
    C186   O731      0.70828  1_545   S
    C183   O731      0.70828      .   S
    C187   O732      0.54499      .   S
    C47    O732      0.54499      .   S
    C187   O733      0.70827      .   S
    C182   O733      0.70827      .   S
    C220   O734      0.54421      .   S
    C84    O734      0.54421      .   S
    C220   O735      0.70174      .   S
    C200   O735      0.70174      .   S
    C223   O736      0.54421      .   S
    C87    O736      0.54421      .   S
    C223   O737      0.70173      .   S
    C203   O737      0.70173      .   S
    C222   O738      0.54421      .   S
    C86    O738      0.54421      .   S
    C222   O739      0.70173      .   S
    C202   O739      0.70173      .   S
    C221   O740      0.54421      .   S
    C85    O740      0.54421      .   S
    C221   O741      0.70174      .   S
    C201   O741      0.70174      .   S
    C204   O742      0.54496      .   S
    C72    O742      0.54496      .   S
    C204   O743      0.70117      .   S
    C200   O743      0.70117      .   S
    C207   O744      0.54455      .   S
    C75    O744      0.54455      .   S
    C207   O745      0.70082      .   S
    C203   O745      0.70082      .   S
    C206   O746      0.54455      .   S
    C74    O746      0.54455      .   S
    C206   O747      0.70083      .   S
    C202   O747      0.70083      .   S
    C205   O748      0.54456      .   S
    C73    O748      0.54456      .   S
    C205   O749      0.70082      .   S
    C201   O749      0.70082      .   S
    C181   O750      0.68621      .   S
    C297   O750      0.68621      .   S
    C182   O751      0.68621      .   S
    C298   O751      0.68621      .   S
    C180   O752      0.68621      .   S
    C296   O752      0.68621      .   S
    C183   O753      0.68621      .   S
    C299   O753      0.68621      .   S
    C297   O754      0.51287  1_565   S
    C24    O754      0.51287      .   S
    C297   O755      0.72018      .   S
    C195   O755      0.72018      .   S
    C299   O756      0.51287  1_565   S
    C26    O756      0.51287      .   S
    C299   O757      0.72011      .   S
    C193   O757      0.72011  1_455   S
    C298   O758      0.51285      .   S
    C27    O758      0.51285      .   S
    C298   O759      0.71820      .   S
    C192   O759      0.71820  1_455   S
    C296   O760      0.51285      .   S
    C25    O760      0.51285      .   S
    C296   O761      0.71829      .   S
    C194   O761      0.71829      .   S
    C52    O762      0.54872      .   S
    C192   O762      0.54872      .   S
    C54    O763      0.54871      .   S
    C194   O763      0.54871      .   S
    C55    O764      0.55041      .   S
    C195   O764      0.55041      .   S
    C53    O765      0.55036      .   S
    C193   O765      0.55036      .   S
    C192   O766      0.76511      .   S
    C196   O766      0.76511  1_655   S
    C192   O767      0.55244      .   S
    C56    O767      0.55244      .   S
    C194   O768      0.76511      .   S
    C198   O768      0.76511      .   S
    C194   O769      0.55244      .   S
    C58    O769      0.55244      .   S
    C195   O770      0.76384      .   S
    C199   O770      0.76384      .   S
    C195   O771      0.54975      .   S
    C59    O771      0.54975      .   S
    C193   O772      0.76385      .   S
    C197   O772      0.76385  1_655   S
    C193   O773      0.54975      .   S
    C57    O773      0.54975      .   S
    C324   O774      0.52548      .   S
    C32    O774      0.52548      .   S
    C324   O775      0.65713      .   S
    C198   O775      0.65713      .   S
    C327   O776      0.52549      .   S
    C35    O776      0.52549      .   S
    C327   O777      0.65702      .   S
    C197   O777      0.65702      .   S
    C326   O778      0.52548      .   S
    C34    O778      0.52548      .   S
    C326   O779      0.65703      .   S
    C196   O779      0.65703      .   S
    C325   O780      0.52549      .   S
    C33    O780      0.52549      .   S
    C325   O781      0.65713      .   S
    C199   O781      0.65713      .   S
    C14    O782      0.89611      .   S
    C338   O782      0.89611      .   S
    C14    O783      0.85822      .   S
    C342   O783      0.85822      .   S
    C14    O784      0.85569      .   S
    C334   O784      0.85569      .   S
    C13    O785      0.89612      .   S
    C337   O785      0.89612      .   S
    C13    O786      0.85822      .   S
    C341   O786      0.85822      .   S
    C13    O787      0.85569      .   S
    C333   O787      0.85569      .   S
    C12    O788      0.89611      .   S
    C336   O788      0.89611      .   S
    C12    O789      0.85822      .   S
    C340   O789      0.85822      .   S
    C12    O790      0.85569      .   S
    C332   O790      0.85569      .   S
    C15    O791      0.89612      .   S
    C339   O791      0.89612      .   S
    C15    O792      0.85822      .   S
    C343   O792      0.85822      .   S
    C15    O793      0.85568      .   S
    C335   O793      0.85568      .   S
    C339   O794      0.51234      .   S
    C67    O794      0.51234      .   S
    C338   O795      0.51222      .   S
    C66    O795      0.51222      .   S
    C337   O796      0.51235      .   S
    C65    O796      0.51235      .   S
    C336   O797      0.51223      .   S
    C64    O797      0.51223      .   S
    C197   O798      0.62074  1_655   S
    C329   O798      0.62074      .   S
    C196   O799      0.62070  1_655   S
    C328   O799      0.62070      .   S
    C198   O800      0.62070      .   S
    C330   O800      0.62070      .   S
    C199   O801      0.62073      .   S
    C331   O801      0.62073      .   S
    C341   O802      1.15211      .   S
    C7     O802      1.15211      .   S
    C343   O803      1.15202      .   S
    C5     O803      1.15202  1_455   S
    C335   O804      1.17590      .   S
    C7     O804      1.17590      .   S
    C333   O805      1.17589      .   S
    C5     O805      1.17589      .   S
    C331   O806      1.20580      .   S
    C7     O806      1.20580      .   S
    C329   O807      1.20581      .   S
    C5     O807      1.20581      .   S
