# CIF file generated by openbabel 2.4.90, see http://openbabel.sf.net
data_I
_chemical_name_common ''
_cell_length_a 9.647
_cell_length_b 19.512
_cell_length_c 23.029
_cell_angle_alpha 89.998
_cell_angle_beta 93.397
_cell_angle_gamma 89.999
_space_group_name_H-M_alt 'P 1'
_space_group_name_Hall 'P 1'
loop_
    _symmetry_equiv_pos_as_xyz
    x,y,z
loop_
    _atom_site_label
    _atom_site_type_symbol
    _atom_site_fract_x
    _atom_site_fract_y
    _atom_site_fract_z
    _atom_site_occupancy
    N0      N    0.72063   0.41903   0.57888   1.000
    N1      N    0.42417   0.94473   0.81141   1.000
    N2      N    0.92417   0.44498   0.81140   1.000
    N3      N    0.92417   0.94473   0.81141   1.000
    N4      N    0.42416   0.44498   0.81140   1.000
    N5      N    0.22061   0.41903   0.57890   1.000
    N6      N    0.22063   0.91839   0.57888   1.000
    N7      N    0.22057   0.83097   0.07890   1.000
    N8      N    0.72058   0.33097   0.07879   1.000
    N9      N    0.72059   0.83097   0.07879   1.000
    N10     N    0.72065   0.91839   0.57890   1.000
    N11     N    0.77950   0.16903   0.92106   1.000
    N12     N    0.27949   0.16902   0.92106   1.000
    N13     N    0.27950   0.66903   0.92107   1.000
    N14     N    0.77954   0.08097   0.42106   1.000
    N15     N    0.77954   0.58097   0.42106   1.000
    N16     N    0.22057   0.33097   0.07879   1.000
    N17     N    0.77951   0.66903   0.92107   1.000
    N18     N    0.27953   0.08097   0.42107   1.000
    N19     N    0.27953   0.58097   0.42107   1.000
    N20     N    0.07524   0.19498   0.68854   1.000
    N21     N    0.07525   0.69499   0.68854   1.000
    N22     N    0.57595   0.19498   0.68854   1.000
    N23     N    0.57595   0.69499   0.68854   1.000
    N24     N    0.07524   0.55502   0.18854   1.000
    N25     N    0.07524   0.05501   0.18854   1.000
    N26     N    0.57594   0.55502   0.18855   1.000
    N27     N    0.57594   0.05501   0.18855   1.000
    N28     N    0.42418   0.30502   0.31138   1.000
    N29     N    0.42419   0.80502   0.31142   1.000
    N30     N    0.92418   0.30502   0.31138   1.000
    N31     N    0.92420   0.80502   0.31138   1.000
    Zr32    Zr   0.00004   0.75001   0.99999   1.000
    O33     O    0.92151   0.73016   0.97190   1.000
    O34     O    0.07858   0.76985   0.02808   1.000
    O35     O    0.08047   0.71869   0.97308   1.000
    O36     O    0.91962   0.78132   0.02687   1.000
    O37     O    0.98907   0.81084   0.94568   1.000
    O38     O    0.01085   0.68911   0.05429   1.000
    Zr39    Zr   0.00009   0.99999   0.49999   1.000
    O40     O    0.07863   0.97959   0.52807   1.000
    O41     O    0.92155   0.01984   0.47190   1.000
    O42     O    0.98912   0.93910   0.44567   1.000
    O43     O    0.91967   0.96852   0.52690   1.000
    O44     O    0.01089   0.06089   0.55429   1.000
    O45     O    0.08051   0.03131   0.47308   1.000
    Zr46    Zr   0.50005   0.25000   0.00000   1.000
    O47     O    0.58047   0.21868   0.97308   1.000
    O48     O    0.57858   0.26984   0.02806   1.000
    O49     O    0.42151   0.23016   0.97190   1.000
    O50     O    0.51103   0.18910   0.05430   1.000
    O51     O    0.41961   0.28132   0.02687   1.000
    O52     O    0.48907   0.31090   0.94568   1.000
    Zr53    Zr   0.50010   0.99999   0.49999   1.000
    O54     O    0.42156   0.01984   0.47190   1.000
    O55     O    0.48913   0.93910   0.44568   1.000
    O56     O    0.57864   0.97959   0.52808   1.000
    O57     O    0.58052   0.03131   0.47308   1.000
    O58     O    0.41967   0.96852   0.52689   1.000
    O59     O    0.51107   0.06089   0.55429   1.000
    Zr60    Zr   0.00004   0.25000   0.00000   1.000
    O61     O    0.92150   0.23016   0.97190   1.000
    O62     O    0.07857   0.26984   0.02806   1.000
    O63     O    0.98906   0.31090   0.94568   1.000
    O64     O    0.08046   0.21868   0.97308   1.000
    O65     O    0.01085   0.18910   0.05430   1.000
    O66     O    0.91961   0.28132   0.02687   1.000
    Zr67    Zr   0.50006   0.75001   0.99999   1.000
    O68     O    0.57859   0.76985   0.02805   1.000
    O69     O    0.42152   0.73016   0.97190   1.000
    O70     O    0.58048   0.71869   0.97308   1.000
    O71     O    0.41962   0.78132   0.02690   1.000
    O72     O    0.51103   0.68911   0.05429   1.000
    O73     O    0.48908   0.81084   0.94568   1.000
    Zr74    Zr   0.00008   0.50000   0.49999   1.000
    O75     O    0.07861   0.48015   0.52808   1.000
    O76     O    0.92155   0.51984   0.47190   1.000
    O77     O    0.01088   0.56090   0.55429   1.000
    O78     O    0.98911   0.43910   0.44567   1.000
    O79     O    0.08050   0.53132   0.47308   1.000
    O80     O    0.91966   0.46868   0.52689   1.000
    Zr81    Zr   0.50009   0.50000   0.49999   1.000
    O82     O    0.42155   0.51984   0.47190   1.000
    O83     O    0.58051   0.53132   0.47308   1.000
    O84     O    0.48911   0.43910   0.44567   1.000
    O85     O    0.41966   0.46868   0.52689   1.000
    O86     O    0.51106   0.56090   0.55429   1.000
    O87     O    0.57863   0.48015   0.52807   1.000
loop_
    _geom_bond_atom_site_label_1
    _geom_bond_atom_site_label_2
    _geom_bond_distance
    _geom_bond_site_symmetry_2
    _ccdc_geom_bond_type
    Zr32   O33       1.04134  1_455   S
    N17    O33       2.11653      .   S
    Zr32   O34       1.04128  1_556   S
    N7     O34       2.11636      .   S
    Zr32   O35       1.19016      .   S
    N13    O35       2.51648      .   S
    Zr32   O36       1.18970  1_456   S
    N9     O36       2.51529      .   S
    Zr32   O37       1.72292  1_455   S
    N3     O37       4.06802      .   S
    Zr32   O38       1.72365  1_556   S
    N24    O38       4.06958      .   S
    Zr39   O40       1.04529      .   S
    N6     O40       2.11700      .   S
    Zr39   O41       1.04137  1_465   S
    N14    O41       2.11663      .   S
    Zr39   O42       1.72390  1_455   S
    N31    O42       4.07081      .   S
    Zr39   O43       1.19159  1_455   S
    N10    O43       2.51985      .   S
    Zr39   O44       1.72369  1_565   S
    N20    O44       4.06972      .   S
    Zr39   O45       1.19007  1_565   S
    N18    O45       2.51635      .   S
    Zr46   O47       1.19024  1_554   S
    N11    O47       2.51664      .   S
    Zr46   O48       1.04084      .   S
    N8     O48       2.11524      .   S
    Zr46   O49       1.04149  1_554   S
    N12    O49       2.11679      .   S
    Zr46   O50       1.72368      .   S
    N27    O50       4.07014      .   S
    Zr46   O51       1.18971      .   S
    N16    O51       2.51534      .   S
    Zr46   O52       1.72389  1_554   S
    N4     O52       4.07069      .   S
    Zr53   O54       1.04137  1_565   S
    N18    O54       2.11657      .   S
    Zr53   O55       1.72373      .   S
    N29    O55       4.07028      .   S
    Zr53   O56       1.04536      .   S
    N10    O56       2.11718      .   S
    Zr53   O57       1.19013  1_565   S
    N14    O57       2.51650      .   S
    Zr53   O58       1.19157      .   S
    N6     O58       2.51980      .   S
    Zr53   O59       1.72372  1_565   S
    N22    O59       4.07027      .   S
    Zr60   O61       1.04143  1_454   S
    N11    O61       2.11670      .   S
    Zr60   O62       1.04084      .   S
    N16    O62       2.11525      .   S
    Zr60   O63       1.72389  1_454   S
    N2     O63       4.07067      .   S
    Zr60   O64       1.19025  1_554   S
    N12    O64       2.51665      .   S
    Zr60   O65       1.72361      .   S
    N25    O65       4.06947      .   S
    Zr60   O66       1.18964  1_455   S
    N8     O66       2.51521      .   S
    Zr67   O68       1.04088  1_556   S
    N9     O68       2.11531      .   S
    Zr67   O69       1.04141      .   S
    N13    O69       2.11663      .   S
    Zr67   O70       1.19016      .   S
    N17    O70       2.51648      .   S
    Zr67   O71       1.19014  1_556   S
    N7     O71       2.51648      .   S
    Zr67   O72       1.72372  1_556   S
    N26    O72       4.07025      .   S
    Zr67   O73       1.72290      .   S
    N1     O73       4.06797      .   S
    Zr74   O75       1.04121      .   S
    N5     O75       2.11625      .   S
    Zr74   O76       1.04135  1_455   S
    N15    O76       2.11660      .   S
    Zr74   O77       1.72370      .   S
    N21    O77       4.06978      .   S
    Zr74   O78       1.72395  1_455   S
    N30    O78       4.07091      .   S
    Zr74   O79       1.19008      .   S
    N19    O79       2.51637      .   S
    Zr74   O80       1.18995  1_455   S
    N0     O80       2.51614      .   S
    Zr81   O82       1.04136      .   S
    N19    O82       2.11655      .   S
    Zr81   O83       1.19014      .   S
    N15    O83       2.51653      .   S
    Zr81   O84       1.72396      .   S
    N28    O84       4.07094      .   S
    Zr81   O85       1.19007      .   S
    N5     O85       2.51641      .   S
    Zr81   O86       1.72373      .   S
    N23    O86       4.07032      .   S
    Zr81   O87       1.04116      .   S
    N0     O87       2.11610      .   S
