# CIF file generated by openbabel 2.4.90, see http://openbabel.sf.net
data_I
_chemical_name_common ''
_cell_length_a 9.647
_cell_length_b 19.512
_cell_length_c 23.029
_cell_angle_alpha 89.998
_cell_angle_beta 93.397
_cell_angle_gamma 89.999
_space_group_name_H-M_alt 'P 1'
_space_group_name_Hall 'P 1'
loop_
    _symmetry_equiv_pos_as_xyz
    x,y,z
loop_
    _atom_site_label
    _atom_site_type_symbol
    _atom_site_fract_x
    _atom_site_fract_y
    _atom_site_fract_z
    _atom_site_occupancy
    Zr0     Zr   0.00009   0.99999   0.49999   1.000
    Zr1     Zr   0.00008   0.50000   0.49999   1.000
    Zr2     Zr   0.50010   0.99999   0.49999   1.000
    Zr3     Zr   0.50009   0.50000   0.49999   1.000
    Zr4     Zr   0.00004   0.25000   0.00000   1.000
    Zr5     Zr   0.00004   0.75001   0.99999   1.000
    Zr6     Zr   0.50005   0.25000   0.00000   1.000
    Zr7     Zr   0.50006   0.75001   0.99999   1.000
    N8      N    0.72063   0.41903   0.57888   1.000
    O9      O    0.83923   0.43736   0.55379   1.000
    O10     O    0.65716   0.46031   0.55616   1.000
    N11     N    0.42417   0.94473   0.81141   1.000
    O12     O    0.47810   0.87167   0.89137   1.000
    N13     N    0.92417   0.44498   0.81140   1.000
    O14     O    0.97809   0.37179   0.89137   1.000
    N15     N    0.92417   0.94473   0.81141   1.000
    O16     O    0.97810   0.87167   0.89137   1.000
    N17     N    0.42416   0.44498   0.81140   1.000
    O18     O    0.47809   0.37179   0.89137   1.000
    N19     N    0.22061   0.41903   0.57890   1.000
    O20     O    0.33922   0.43736   0.55380   1.000
    O21     O    0.15715   0.46031   0.55617   1.000
    N22     N    0.22063   0.91839   0.57888   1.000
    O23     O    0.33924   0.93704   0.55379   1.000
    O24     O    0.15716   0.95919   0.55616   1.000
    N25     N    0.22057   0.83097   0.07890   1.000
    O26     O    0.33919   0.81264   0.05380   1.000
    O27     O    0.15711   0.78969   0.05617   1.000
    N28     N    0.72058   0.33097   0.07879   1.000
    O29     O    0.83919   0.31263   0.05375   1.000
    O30     O    0.65711   0.28969   0.05612   1.000
    N31     N    0.72059   0.83097   0.07879   1.000
    O32     O    0.83919   0.81264   0.05375   1.000
    O33     O    0.65712   0.78969   0.05611   1.000
    N34     N    0.72065   0.91839   0.57890   1.000
    O35     O    0.83925   0.93704   0.55380   1.000
    O36     O    0.65717   0.95919   0.55617   1.000
    N37     N    0.77950   0.16903   0.92106   1.000
    O38     O    0.66090   0.18736   0.94617   1.000
    O39     O    0.84297   0.21031   0.94380   1.000
    N40     N    0.27949   0.16902   0.92106   1.000
    O41     O    0.16089   0.18736   0.94617   1.000
    O42     O    0.34297   0.21031   0.94380   1.000
    N43     N    0.27950   0.66903   0.92107   1.000
    O44     O    0.16090   0.68737   0.94617   1.000
    O45     O    0.34298   0.71032   0.94380   1.000
    N46     N    0.77954   0.08097   0.42106   1.000
    O47     O    0.66094   0.06263   0.44617   1.000
    O48     O    0.84302   0.03969   0.44380   1.000
    N49     N    0.77954   0.58097   0.42106   1.000
    O50     O    0.66094   0.56264   0.44617   1.000
    O51     O    0.84301   0.53969   0.44380   1.000
    N52     N    0.22057   0.33097   0.07879   1.000
    O53     O    0.33918   0.31263   0.05375   1.000
    O54     O    0.15710   0.28969   0.05612   1.000
    N55     N    0.77951   0.66903   0.92107   1.000
    O56     O    0.66091   0.68737   0.94617   1.000
    O57     O    0.84298   0.71031   0.94380   1.000
    N58     N    0.27953   0.08097   0.42107   1.000
    O59     O    0.16093   0.06263   0.44617   1.000
    O60     O    0.34301   0.03969   0.44381   1.000
    N61     N    0.27953   0.58097   0.42107   1.000
    O62     O    0.16092   0.56264   0.44617   1.000
    O63     O    0.34301   0.53969   0.44381   1.000
    N64     N    0.07524   0.19498   0.68854   1.000
    O65     O    0.02168   0.12179   0.60859   1.000
    N66     N    0.07525   0.69499   0.68854   1.000
    O67     O    0.02168   0.62179   0.60859   1.000
    N68     N    0.57595   0.19498   0.68854   1.000
    O69     O    0.52203   0.12179   0.60859   1.000
    N70     N    0.57595   0.69499   0.68854   1.000
    O71     O    0.52204   0.62179   0.60859   1.000
    N72     N    0.07524   0.55502   0.18854   1.000
    O73     O    0.02166   0.62821   0.10859   1.000
    N74     N    0.07524   0.05501   0.18854   1.000
    O75     O    0.02166   0.12821   0.10860   1.000
    N76     N    0.57594   0.55502   0.18855   1.000
    O77     O    0.52201   0.62821   0.10860   1.000
    N78     N    0.57594   0.05501   0.18855   1.000
    O79     O    0.52201   0.12821   0.10860   1.000
    N80     N    0.42418   0.30502   0.31138   1.000
    O81     O    0.47814   0.37821   0.39136   1.000
    N82     N    0.42419   0.80502   0.31142   1.000
    O83     O    0.47815   0.87821   0.39138   1.000
    N84     N    0.92418   0.30502   0.31138   1.000
    O85     O    0.97813   0.37821   0.39136   1.000
    N86     N    0.92420   0.80502   0.31138   1.000
    O87     O    0.97815   0.87821   0.39136   1.000
loop_
    _geom_bond_atom_site_label_1
    _geom_bond_atom_site_label_2
    _geom_bond_distance
    _geom_bond_site_symmetry_2
    _ccdc_geom_bond_type
    N8     O9        1.35991      .   S
    Zr1    O9        2.37990  1_455   S
    N8     O10       1.12231      .   S
    Zr3    O10       2.08232      .   S
    N11    O12       2.36224      .   S
    Zr7    O12       3.44579      .   S
    N13    O14       2.36391      .   S
    Zr4    O14       3.44778  1_454   S
    N15    O16       2.36227      .   S
    Zr5    O16       3.44583  1_455   S
    N17    O18       2.36393      .   S
    Zr6    O18       3.44778  1_554   S
    N19    O20       1.36006      .   S
    Zr3    O20       2.38014      .   S
    N19    O21       1.12239      .   S
    Zr1    O21       2.08243      .   S
    N22    O23       1.36159      .   S
    Zr2    O23       2.38314      .   S
    N22    O24       1.11561      .   S
    Zr0    O24       2.09058      .   S
    N25    O26       1.36006      .   S
    Zr7    O26       2.38028  1_556   S
    N25    O27       1.12243      .   S
    Zr5    O27       2.08256  1_556   S
    N28    O29       1.35932      .   S
    Zr4    O29       2.37929  1_455   S
    N28    O30       1.12182      .   S
    Zr6    O30       2.08168      .   S
    N31    O32       1.35936      .   S
    Zr5    O32       2.37939  1_456   S
    N31    O33       1.12184      .   S
    Zr7    O33       2.08177  1_556   S
    N34    O35       1.36162      .   S
    Zr0    O35       2.38318  1_455   S
    N34    O36       1.11571      .   S
    Zr2    O36       2.09072      .   S
    N37    O38       1.36013      .   S
    Zr6    O38       2.38048  1_554   S
    N37    O39       1.12260      .   S
    Zr4    O39       2.08286  1_454   S
    N40    O41       1.36013      .   S
    Zr4    O41       2.38049  1_554   S
    N40    O42       1.12263      .   S
    Zr6    O42       2.08299  1_554   S
    N43    O44       1.36005      .   S
    Zr5    O44       2.38032      .   S
    N43    O45       1.12256      .   S
    Zr7    O45       2.08282      .   S
    N46    O47       1.36010      .   S
    Zr2    O47       2.38026  1_565   S
    N46    O48       1.12258      .   S
    Zr0    O48       2.08273  1_465   S
    N49    O50       1.36011      .   S
    Zr3    O50       2.38028      .   S
    N49    O51       1.12257      .   S
    Zr1    O51       2.08270  1_455   S
    N52    O53       1.35939      .   S
    Zr6    O53       2.37941      .   S
    N52    O54       1.12182      .   S
    Zr4    O54       2.08168      .   S
    N55    O56       1.36005      .   S
    Zr7    O56       2.38033      .   S
    N55    O57       1.12252      .   S
    Zr5    O57       2.08268  1_455   S
    N58    O59       1.36000      .   S
    Zr0    O59       2.38014  1_565   S
    N58    O60       1.12253      .   S
    Zr2    O60       2.08275  1_565   S
    N61    O62       1.36001      .   S
    Zr1    O62       2.38016      .   S
    N61    O63       1.12252      .   S
    Zr3    O63       2.08271      .   S
    N64    O65       2.36308      .   S
    Zr0    O65       3.44737  1_565   S
    N66    O67       2.36312      .   S
    Zr1    O67       3.44741      .   S
    N68    O69       2.36368      .   S
    Zr2    O69       3.44744  1_565   S
    N70    O71       2.36371      .   S
    Zr3    O71       3.44746      .   S
    N72    O73       2.36298      .   S
    Zr5    O73       3.44730  1_556   S
    N74    O75       2.36292      .   S
    Zr4    O75       3.44721      .   S
    N76    O77       2.36366      .   S
    Zr7    O77       3.44745  1_556   S
    N78    O79       2.36359      .   S
    Zr6    O79       3.44736      .   S
    N80    O81       2.36412      .   S
    Zr3    O81       3.44791      .   S
    N82    O83       2.36370      .   S
    Zr2    O83       3.44746      .   S
    N84    O85       2.36410      .   S
    Zr1    O85       3.44789  1_455   S
    N86    O87       2.36405      .   S
    Zr0    O87       3.44780  1_455   S
