# CIF file generated by openbabel 2.4.90, see http://openbabel.sf.net
data_I
_chemical_name_common 'VESTA_phase_1'
_cell_length_a 13.218
_cell_length_b 13.2
_cell_length_c 18.517
_cell_angle_alpha 83.284
_cell_angle_beta 83.11
_cell_angle_gamma 67.658
_space_group_name_H-M_alt 'P 1'
_space_group_name_Hall 'P 1'
loop_
    _symmetry_equiv_pos_as_xyz
    x,y,z
loop_
    _atom_site_label
    _atom_site_type_symbol
    _atom_site_fract_x
    _atom_site_fract_y
    _atom_site_fract_z
    _atom_site_occupancy
    Zn0     Zn   0.70664   0.95635   0.78148   1.000
    Zn1     Zn   0.09851   0.71620   0.57764   1.000
    Zn2     Zn   0.04356   0.29343   0.71867   1.000
    Zn3     Zn   0.28059   0.90170   0.92234   1.000
    Zn4     Zn   0.29338   0.04363   0.21850   1.000
    Zn5     Zn   0.90151   0.28378   0.42237   1.000
    Zn6     Zn   0.95647   0.70654   0.28133   1.000
    Zn7     Zn   0.71945   0.09828   0.07767   1.000
    Zn8     Zn   0.86202   0.13788   0.74986   1.000
    Zn9     Zn   0.13800   0.86210   0.25015   1.000
    H10     H    0.61177   0.38040   0.66730   1.000
    H11     H    0.45027   0.54374   0.62609   1.000
    H12     H    0.41012   0.18699   0.70190   1.000
    H13     H    0.81902   0.19160   0.92575   1.000
    H14     H    0.69020   0.93956   0.96188   1.000
    H15     H    0.07207   0.94507   0.64796   1.000
    H16     H    0.86398   0.76550   0.67263   1.000
    H17     H    0.61954   0.38824   0.83257   1.000
    H18     H    0.45544   0.54971   0.87354   1.000
    H19     H    0.81153   0.59128   0.79852   1.000
    H20     H    0.80820   0.18264   0.57379   1.000
    H21     H    0.06041   0.31102   0.53853   1.000
    H22     H    0.05301   0.92809   0.85119   1.000
    H23     H    0.23302   0.13574   0.82782   1.000
    H24     H    0.38825   0.61959   0.33271   1.000
    H25     H    0.54975   0.45625   0.37392   1.000
    H26     H    0.58990   0.81299   0.29803   1.000
    H27     H    0.18101   0.80838   0.07425   1.000
    H28     H    0.30985   0.06040   0.03813   1.000
    H29     H    0.92796   0.05491   0.35200   1.000
    H30     H    0.13603   0.23449   0.32737   1.000
    H31     H    0.38048   0.61174   0.16742   1.000
    H32     H    0.54458   0.45028   0.12646   1.000
    H33     H    0.18851   0.40869   0.20147   1.000
    H34     H    0.19181   0.81735   0.42622   1.000
    H35     H    0.93963   0.68893   0.46147   1.000
    H36     H    0.94705   0.07188   0.14882   1.000
    H37     H    0.76701   0.86425   0.17218   1.000
    C38     C    0.61538   0.17636   0.71330   1.000
    C39     C    0.52001   0.27398   0.68704   1.000
    C40     C    0.53229   0.37439   0.66522   1.000
    C41     C    0.44286   0.46471   0.64237   1.000
    C42     C    0.34021   0.45667   0.64010   1.000
    C43     C    0.32782   0.35550   0.66100   1.000
    C44     C    0.41810   0.26558   0.68486   1.000
    C45     C    0.24715   0.55643   0.61686   1.000
    C46     C    0.22311   0.33588   0.65810   1.000
    C47     C    0.79253   0.12544   0.91840   1.000
    C48     C    0.72601   0.99847   0.93756   1.000
    C49     C    0.00342   0.91909   0.66390   1.000
    C50     C    0.89819   0.82750   0.67596   1.000
    C51     C    0.82351   0.38510   0.78712   1.000
    C52     C    0.72539   0.48060   0.81325   1.000
    C53     C    0.62510   0.46800   0.83477   1.000
    C54     C    0.53433   0.55746   0.85748   1.000
    C55     C    0.54169   0.66053   0.85991   1.000
    C56     C    0.64271   0.67327   0.83920   1.000
    C57     C    0.73310   0.58294   0.81551   1.000
    C58     C    0.44138   0.75354   0.88301   1.000
    C59     C    0.66182   0.77843   0.84194   1.000
    C60     C    0.87432   0.20896   0.58130   1.000
    C61     C    0.00000   0.27537   0.56264   1.000
    C62     C    0.07930   0.99662   0.83550   1.000
    C63     C    0.17107   0.10169   0.82411   1.000
    C64     C    0.38464   0.82363   0.28665   1.000
    C65     C    0.48001   0.72601   0.31298   1.000
    C66     C    0.46773   0.62559   0.33479   1.000
    C67     C    0.55716   0.53527   0.35764   1.000
    C68     C    0.65981   0.54331   0.35991   1.000
    C69     C    0.67220   0.64449   0.33898   1.000
    C70     C    0.58192   0.73440   0.31515   1.000
    C71     C    0.75287   0.44356   0.38315   1.000
    C72     C    0.77691   0.66410   0.34187   1.000
    C73     C    0.20750   0.87454   0.08156   1.000
    C74     C    0.27404   0.00000   0.06240   1.000
    C75     C    0.99660   0.08089   0.33611   1.000
    C76     C    0.10183   0.17248   0.32404   1.000
    C77     C    0.17651   0.61488   0.21285   1.000
    C78     C    0.27463   0.51938   0.18674   1.000
    C79     C    0.37493   0.53197   0.16522   1.000
    C80     C    0.46570   0.44253   0.14251   1.000
    C81     C    0.45834   0.33945   0.14008   1.000
    C82     C    0.35733   0.32670   0.16080   1.000
    C83     C    0.26693   0.41703   0.18448   1.000
    C84     C    0.55866   0.24644   0.11698   1.000
    C85     C    0.33822   0.22154   0.15806   1.000
    C86     C    0.12570   0.79102   0.41871   1.000
    C87     C    0.99873   0.72458   0.43737   1.000
    C88     C    0.92075   0.00336   0.16451   1.000
    C89     C    0.82896   0.89830   0.17590   1.000
    N90     N    0.79558   0.08962   0.85385   1.000
    N91     N    0.75268   0.00000   0.86625   1.000
    N92     N    0.75008   0.07036   0.97274   1.000
    N93     N    0.91614   0.97373   0.70688   1.000
    N94     N    0.84877   0.91479   0.71427   1.000
    N95     N    0.99599   0.82672   0.64290   1.000
    N96     N    0.91021   0.20503   0.64592   1.000
    N97     N    0.99142   0.24789   0.63381   1.000
    N98     N    0.92933   0.25200   0.52720   1.000
    N99     N    0.02558   0.08381   0.79240   1.000
    N100    N    0.08461   0.15106   0.78543   1.000
    N101    N    0.17115   0.00000   0.85702   1.000
    N102    N    0.20445   0.91036   0.14615   1.000
    N103    N    0.24736   0.99159   0.13376   1.000
    N104    N    0.24997   0.92961   0.02727   1.000
    N105    N    0.08388   0.02625   0.29310   1.000
    N106    N    0.15124   0.08519   0.28573   1.000
    N107    N    0.00000   0.17326   0.35711   1.000
    N108    N    0.08983   0.79493   0.35409   1.000
    N109    N    0.00000   0.75205   0.36619   1.000
    N110    N    0.07070   0.74797   0.47274   1.000
    N111    N    0.97445   0.91616   0.20762   1.000
    N112    N    0.91542   0.84892   0.21450   1.000
    N113    N    0.82889   0.99596   0.14299   1.000
    O114    O    0.70953   0.18239   0.70377   1.000
    O115    O    0.59341   0.09352   0.74323   1.000
    O116    O    0.14987   0.55560   0.61890   1.000
    O117    O    0.26262   0.64616   0.59442   1.000
    O118    O    0.19919   0.31555   0.60016   1.000
    O119    O    0.16925   0.33387   0.72182   1.000
    O120    O    0.81747   0.29087   0.79616   1.000
    O121    O    0.90676   0.40698   0.75799   1.000
    O122    O    0.44131   0.85127   0.88069   1.000
    O123    O    0.35202   0.73740   0.90562   1.000
    O124    O    0.67999   0.80422   0.89999   1.000
    O125    O    0.66599   0.83070   0.77800   1.000
    O126    O    0.29049   0.81759   0.29624   1.000
    O127    O    0.40661   0.90646   0.25678   1.000
    O128    O    0.85015   0.44438   0.38104   1.000
    O129    O    0.73740   0.35382   0.40559   1.000
    O130    O    0.80083   0.68443   0.39985   1.000
    O131    O    0.83077   0.66611   0.27819   1.000
    O132    O    0.18257   0.70910   0.20385   1.000
    O133    O    0.09321   0.59302   0.24191   1.000
    O134    O    0.55874   0.14870   0.11933   1.000
    O135    O    0.64802   0.26259   0.09437   1.000
    O136    O    0.32004   0.19575   0.10002   1.000
    O137    O    0.33403   0.16928   0.22201   1.000
loop_
    _geom_bond_atom_site_label_1
    _geom_bond_atom_site_label_2
    _geom_bond_distance
    _geom_bond_site_symmetry_2
    _ccdc_geom_bond_type
    N104   C74       1.34292  1_565   S
    N104   C73       1.36310      .   S
    N104   Zn3       1.98497  1_554   S
    H28    C74       1.10170      .   S
    C74    N103      1.32905  1_545   S
    H27    C73       1.08401      .   S
    Zn7    O135      2.05449      .   S
    Zn7    O134      2.05000      .   S
    Zn7    N113      1.98291  1_545   S
    Zn7    N92       1.98502  1_554   S
    C73    N102      1.32737      .   S
    O135   C84       1.29130      .   S
    O136   C85       1.24031      .   S
    C84    O134      1.28535      .   S
    C84    C81       1.48242      .   S
    H32    C80       1.08889      .   S
    N103   N102      1.37745      .   S
    N103   Zn4       2.02564  1_565   S
    C81    C80       1.40668      .   S
    C81    C82       1.41106      .   S
    C80    C79       1.38873      .   S
    N113   C88       1.36296  1_565   S
    N113   C89       1.35969      .   S
    N102   Zn9       2.14906      .   S
    H36    C88       1.08472      .   S
    C85    C82       1.50977      .   S
    C85    O137      1.30513      .   S
    C82    C83       1.39826      .   S
    C88    N111      1.32886  1_545   S
    C79    H31       1.08864      .   S
    C79    C78       1.40327      .   S
    H37    C89       1.08526      .   S
    C89    N112      1.32761      .   S
    C83    C78       1.39860      .   S
    C83    H33       1.08908      .   S
    C78    C77       1.50138      .   S
    O132   C77       1.26701      .   S
    O132   Zn9       2.13075      .   S
    N111   N112      1.37446      .   S
    N111   Zn9       2.21514  1_655   S
    C77    O133      1.28374      .   S
    N112   Zn6       2.04937      .   S
    Zn4    O137      1.93776      .   S
    Zn4    O127      1.97861  1_545   S
    Zn4    N106      2.04830      .   S
    O133   Zn6       1.98125  1_455   S
    Zn9    N105      2.21973  1_565   S
    Zn9    O126      2.12863      .   S
    Zn9    N108      2.15219      .   S
    O127   C64       1.28347      .   S
    O131   Zn6       1.93735      .   S
    O131   C72       1.30521      .   S
    Zn6    N109      1.96508  1_655   S
    N106   N105      1.37454      .   S
    N106   C76       1.32870      .   S
    C64    O126      1.26715      .   S
    C64    C65       1.50095      .   S
    N105   C75       1.32920  1_455   S
    H26    C70       1.08905      .   S
    C65    C70       1.39860      .   S
    C65    C66       1.40320      .   S
    C70    C69       1.39797      .   S
    C76    H30       1.08527      .   S
    C76    N107      1.40710      .   S
    H24    C66       1.08861      .   S
    C66    C67       1.38864      .   S
    C75    H29       1.08461      .   S
    C75    N107      1.34040  1_655   S
    C69    C72       1.50970      .   S
    C69    C68       1.41088      .   S
    C72    O130      1.24014      .   S
    N108   N109      1.48255      .   S
    N108   C86       1.32748      .   S
    N107   Zn5       1.96836  1_455   S
    C67    C68       1.40651      .   S
    C67    H25       1.08889      .   S
    C68    C71       1.48165      .   S
    N109   C87       1.32534  1_455   S
    O128   C71       1.28584      .   S
    O128   Zn5       2.04733      .   S
    C71    O129      1.29076      .   S
    O129   Zn5       2.05582      .   S
    C86    H34       1.08405      .   S
    C86    N110      1.36340      .   S
    Zn5    N98       1.98563      .   S
    C87    H35       1.08522      .   S
    C87    N110      1.35984  1_655   S
    N110   Zn1       1.98687      .   S
    N98    C61       1.34613  1_655   S
    N98    C60       1.36419      .   S
    H21    C61       1.09972      .   S
    C61    N97       1.32846  1_455   S
    H20    C60       1.08405      .   S
    Zn1    O117      2.05582      .   S
    Zn1    O116      2.04694      .   S
    Zn1    N95       1.98527  1_455   S
    C60    N96       1.32753      .   S
    O117   C45       1.29076      .   S
    O118   C46       1.23947      .   S
    C45    O116      1.28596      .   S
    C45    C42       1.48163      .   S
    H11    C41       1.08890      .   S
    N97    N96       1.37733      .   S
    N97    Zn2       2.02514  1_655   S
    C42    C41       1.40652      .   S
    C42    C43       1.41080      .   S
    C41    C40       1.38863      .   S
    N95    C49       1.36326  1_655   S
    N95    C50       1.35928      .   S
    N96    Zn8       2.15214      .   S
    H15    C49       1.08475      .   S
    C46    C43       1.50972      .   S
    C46    O119      1.30584      .   S
    C43    C44       1.39814      .   S
    C49    N93       1.32890  1_455   S
    C40    H10       1.08861      .   S
    C40    C39       1.40322      .   S
    H16    C50       1.08526      .   S
    C50    N94       1.32867      .   S
    C44    C39       1.39862      .   S
    C44    H12       1.08882      .   S
    C39    C38       1.50055      .   S
    O114   C38       1.26712      .   S
    O114   Zn8       2.12866      .   S
    N93    N94       1.37454      .   S
    N93    Zn8       2.21999  1_565   S
    C38    O115      1.28384      .   S
    N94    Zn0       2.04807      .   S
    Zn2    O119      1.93734      .   S
    Zn2    O121      1.98114  1_455   S
    Zn2    N100      2.04856      .   S
    O115   Zn0       1.97842  1_545   S
    Zn8    N99       2.21535  1_655   S
    Zn8    O120      2.13068      .   S
    Zn8    N90       2.14890      .   S
    O121   C51       1.28374      .   S
    O125   Zn0       1.93766      .   S
    O125   C59       1.30499      .   S
    Zn0    N91       1.96814  1_565   S
    N100   N99       1.37439      .   S
    N100   C63       1.32853      .   S
    C51    O120      1.26700      .   S
    C51    C52       1.50138      .   S
    N99    C62       1.32879  1_545   S
    H19    C57       1.08908      .   S
    C52    C57       1.39858      .   S
    C52    C53       1.40328      .   S
    C57    C56       1.39829      .   S
    C63    H23       1.08526      .   S
    C63    N101      1.40741      .   S
    H17    C53       1.08861      .   S
    C53    C54       1.38872      .   S
    C62    H22       1.08472      .   S
    C62    N101      1.34024  1_565   S
    C56    C59       1.50976      .   S
    C56    C55       1.41105      .   S
    C59    O124      1.24046      .   S
    N90    N91       1.47944      .   S
    N90    C47       1.32667      .   S
    N101   Zn3       1.96590  1_545   S
    C54    C55       1.40668      .   S
    C54    H18       1.08892      .   S
    C55    C58       1.48242      .   S
    N91    C48       1.32504  1_545   S
    O122   C58       1.28537      .   S
    O122   Zn3       2.05007      .   S
    C58    O123      1.29131      .   S
    O123   Zn3       2.05453      .   S
    C47    H13       1.08421      .   S
    C47    N92       1.36366      .   S
    C48    H14       1.08544      .   S
    C48    N92       1.36006  1_565   S
