# CIF file generated by openbabel 2.4.90, see http://openbabel.sf.net
data_I
_chemical_name_common ''
_cell_length_a 6.82
_cell_length_b 9.31423
_cell_length_c 10.1835
_cell_angle_alpha 67.1928
_cell_angle_beta 81.436
_cell_angle_gamma 73.461
_space_group_name_H-M_alt 'P 1'
_space_group_name_Hall 'P 1'
loop_
    _symmetry_equiv_pos_as_xyz
    x,y,z
loop_
    _atom_site_label
    _atom_site_type_symbol
    _atom_site_fract_x
    _atom_site_fract_y
    _atom_site_fract_z
    _atom_site_occupancy
    H0      H    0.22241   0.47739   0.09853   1.000
    H1      H    0.24411   0.91274   0.74018   1.000
    H2      H    0.27451   0.89302   0.16728   1.000
    H3      H    0.77758   0.52264   0.90147   1.000
    H4      H    0.75589   0.08729   0.25981   1.000
    H5      H    0.72549   0.10701   0.83270   1.000
    C6      C    0.25013   0.67567   0.14952   1.000
    C7      C    0.23436   0.60141   0.05684   1.000
    C8      C    0.23739   0.68587   0.90923   1.000
    C9      C    0.24599   0.84703   0.85492   1.000
    C10     C    0.25568   0.92289   0.94768   1.000
    C11     C    0.26257   0.83561   0.09490   1.000
    C12     C    0.74984   0.32437   0.85046   1.000
    C13     C    0.76561   0.39862   0.94315   1.000
    C14     C    0.76259   0.31417   0.09076   1.000
    C15     C    0.75399   0.15301   0.14506   1.000
    C16     C    0.74431   0.07714   0.05231   1.000
    C17     C    0.73741   0.16442   0.90508   1.000
loop_
    _geom_bond_atom_site_label_1
    _geom_bond_atom_site_label_2
    _geom_bond_distance
    _geom_bond_site_symmetry_2
    _ccdc_geom_bond_type
    C16    C15       1.39950      .   S
    C16    C17       1.40187  1_554   S
    C7     H0        1.08831      .   S
    C7     C6        1.39979      .   S
    C7     C8        1.40073  1_554   S
    C14    C15       1.39977      .   S
    C14    C13       1.40070  1_554   S
    C11    C6        1.39692      .   S
    C11    H2        1.08814      .   S
    C11    C10       1.40182  1_554   S
    C15    H4        1.08890      .   S
    H1     C9        1.08889      .   S
    H5     C17       1.08814      .   S
    C12    C17       1.39694      .   S
    C12    C13       1.39981      .   S
    C9     C8        1.39978      .   S
    C9     C10       1.39951      .   S
    H3     C13       1.08829      .   S
