# CIF file generated by openbabel 2.4.90, see http://openbabel.sf.net
data_I
_chemical_name_common 'VESTA_phase_1'
_cell_length_a 22.207
_cell_length_b 14.008
_cell_length_c 16.175
_cell_angle_alpha 90
_cell_angle_beta 90
_cell_angle_gamma 90
_space_group_name_H-M_alt 'P 1'
_space_group_name_Hall 'P 1'
loop_
    _symmetry_equiv_pos_as_xyz
    x,y,z
loop_
    _atom_site_label
    _atom_site_type_symbol
    _atom_site_fract_x
    _atom_site_fract_y
    _atom_site_fract_z
    _atom_site_occupancy
    Zn0     Zn   0.24999   0.90157   0.00000   1.000
    Zn1     Zn   0.75000   0.90162   0.99999   1.000
    Zn2     Zn   0.25000   0.09837   0.99999   1.000
    Zn3     Zn   0.75001   0.09843   0.99999   1.000
    H4      H    0.43081   0.84723   0.66489   1.000
    H5      H    0.93114   0.84567   0.66404   1.000
    H6      H    0.37186   0.84854   0.79664   1.000
    H7      H    0.87220   0.84567   0.79580   1.000
    H8      H    0.06920   0.15278   0.66489   1.000
    H9      H    0.56889   0.15435   0.66400   1.000
    H10     H    0.12813   0.15147   0.79665   1.000
    H11     H    0.62783   0.15436   0.79577   1.000
    H12     H    0.06911   0.84742   0.33515   1.000
    H13     H    0.56886   0.84570   0.33590   1.000
    H14     H    0.12806   0.84861   0.20340   1.000
    H15     H    0.62781   0.84570   0.20422   1.000
    H16     H    0.43083   0.15263   0.33519   1.000
    H17     H    0.93114   0.15435   0.33598   1.000
    H18     H    0.37189   0.15142   0.20344   1.000
    H19     H    0.87220   0.15435   0.20421   1.000
    H20     H    0.06888   0.15445   0.33594   1.000
    H21     H    0.56918   0.15274   0.33515   1.000
    H22     H    0.12782   0.15440   0.20418   1.000
    H23     H    0.62812   0.15149   0.20340   1.000
    H24     H    0.43111   0.84559   0.33597   1.000
    H25     H    0.93085   0.84731   0.33514   1.000
    H26     H    0.37217   0.84563   0.20421   1.000
    H27     H    0.87192   0.84856   0.20338   1.000
    H28     H    0.43117   0.15426   0.66401   1.000
    H29     H    0.93088   0.15271   0.66490   1.000
    H30     H    0.37222   0.15433   0.79576   1.000
    H31     H    0.87194   0.15146   0.79665   1.000
    H32     H    0.06883   0.84574   0.66401   1.000
    H33     H    0.56919   0.84731   0.66485   1.000
    H34     H    0.12777   0.84568   0.79577   1.000
    H35     H    0.62814   0.84857   0.79660   1.000
    H36     H    0.34300   0.74779   0.00072   1.000
    H37     H    0.84305   0.74788   0.99917   1.000
    H38     H    0.34757   0.57101   0.00059   1.000
    H39     H    0.84765   0.57109   0.99925   1.000
    H40     H    0.15695   0.25213   0.00069   1.000
    H41     H    0.65700   0.25222   0.99914   1.000
    H42     H    0.15235   0.42892   0.00058   1.000
    H43     H    0.65244   0.42900   0.99923   1.000
    H44     H    0.15695   0.74784   0.99932   1.000
    H45     H    0.65700   0.74782   0.00084   1.000
    H46     H    0.15235   0.57105   0.99940   1.000
    H47     H    0.65244   0.57104   0.00075   1.000
    H48     H    0.34300   0.25218   0.99920   1.000
    H49     H    0.84305   0.25216   0.00084   1.000
    H50     H    0.34756   0.42896   0.99940   1.000
    H51     H    0.84765   0.42895   0.00075   1.000
    C52     C    0.41840   0.91465   0.69390   1.000
    C53     C    0.91859   0.91280   0.69351   1.000
    C54     C    0.38567   0.91503   0.76737   1.000
    C55     C    0.88587   0.91246   0.76691   1.000
    C56     C    0.08161   0.08536   0.69398   1.000
    C57     C    0.58144   0.08722   0.69349   1.000
    C58     C    0.11432   0.08498   0.76738   1.000
    C59     C    0.61417   0.08757   0.76688   1.000
    C60     C    0.08155   0.91481   0.30604   1.000
    C61     C    0.58142   0.91283   0.30651   1.000
    C62     C    0.11427   0.91513   0.23265   1.000
    C63     C    0.61414   0.91249   0.23311   1.000
    C64     C    0.41841   0.08523   0.30607   1.000
    C65     C    0.91858   0.08722   0.30651   1.000
    C66     C    0.38569   0.08490   0.23268   1.000
    C67     C    0.88586   0.08756   0.23311   1.000
    C68     C    0.08142   0.08731   0.30648   1.000
    C69     C    0.58159   0.08533   0.30605   1.000
    C70     C    0.11414   0.08762   0.23308   1.000
    C71     C    0.61432   0.08498   0.23266   1.000
    C72     C    0.41856   0.91273   0.30651   1.000
    C73     C    0.91842   0.91472   0.30604   1.000
    C74     C    0.38584   0.91241   0.23311   1.000
    C75     C    0.88570   0.91507   0.23265   1.000
    C76     C    0.41860   0.08714   0.69349   1.000
    C77     C    0.91844   0.08530   0.69399   1.000
    C78     C    0.38588   0.08753   0.76689   1.000
    C79     C    0.88573   0.08495   0.76738   1.000
    C80     C    0.08140   0.91286   0.69349   1.000
    C81     C    0.58161   0.91472   0.69395   1.000
    C82     C    0.11412   0.91248   0.76689   1.000
    C83     C    0.61433   0.91507   0.76734   1.000
    C84     C    0.43787   0.99985   0.50002   1.000
    C85     C    0.93787   0.99997   0.50001   1.000
    C86     C    0.06213   0.00015   0.50000   1.000
    C87     C    0.56214   0.00005   0.50000   1.000
    C88     C    0.24996   0.55298   0.00000   1.000
    C89     C    0.75005   0.55302   0.00000   1.000
    C90     C    0.24996   0.44699   0.99999   1.000
    C91     C    0.75005   0.44702   0.99999   1.000
    C92     C    0.46823   0.00030   0.57610   1.000
    C93     C    0.96823   0.99961   0.57610   1.000
    C94     C    0.43479   0.00069   0.65597   1.000
    C95     C    0.93480   0.99921   0.65598   1.000
    C96     C    0.36882   0.00146   0.80429   1.000
    C97     C    0.86883   0.99852   0.80430   1.000
    C98     C    0.33041   0.00181   0.88057   1.000
    C99     C    0.83043   0.99819   0.88058   1.000
    C100    C    0.03179   0.99969   0.57610   1.000
    C101    C    0.53179   0.00038   0.57610   1.000
    C102    C    0.06523   0.99929   0.65596   1.000
    C103    C    0.56524   0.00078   0.65596   1.000
    C104    C    0.13118   0.99853   0.80430   1.000
    C105    C    0.63121   0.00148   0.80427   1.000
    C106    C    0.16959   0.99818   0.88050   1.000
    C107    C    0.66960   0.00182   0.88057   1.000
    C108    C    0.03178   0.00050   0.42391   1.000
    C109    C    0.53178   0.99961   0.42391   1.000
    C110    C    0.06521   0.00088   0.34404   1.000
    C111    C    0.56522   0.99925   0.34404   1.000
    C112    C    0.13117   0.00152   0.19571   1.000
    C113    C    0.63120   0.99854   0.19573   1.000
    C114    C    0.16958   0.00182   0.11944   1.000
    C115    C    0.66959   0.99820   0.11944   1.000
    C116    C    0.46822   0.99952   0.42392   1.000
    C117    C    0.96822   0.00041   0.42392   1.000
    C118    C    0.43477   0.99914   0.34406   1.000
    C119    C    0.93478   0.00078   0.34405   1.000
    C120    C    0.36881   0.99848   0.19573   1.000
    C121    C    0.86881   0.00148   0.19573   1.000
    C122    C    0.33041   0.99817   0.11945   1.000
    C123    C    0.83043   0.00181   0.11943   1.000
    C124    C    0.30206   0.70487   0.00030   1.000
    C125    C    0.80211   0.70492   0.99958   1.000
    C126    C    0.30379   0.60579   0.00032   1.000
    C127    C    0.80387   0.60585   0.99960   1.000
    C128    C    0.19789   0.29508   0.00034   1.000
    C129    C    0.69795   0.29514   0.99956   1.000
    C130    C    0.19614   0.39416   0.00030   1.000
    C131    C    0.69622   0.39422   0.99950   1.000
    C132    C    0.19789   0.70489   0.99965   1.000
    C133    C    0.69795   0.70490   0.00042   1.000
    C134    C    0.19614   0.60581   0.99968   1.000
    C135    C    0.69622   0.60582   0.00040   1.000
    C136    C    0.30206   0.29511   0.99966   1.000
    C137    C    0.80212   0.29512   0.00000   1.000
    C138    C    0.30379   0.39418   0.99967   1.000
    C139    C    0.80387   0.39419   0.00040   1.000
    Br140   Br   0.35123   0.99970   0.50003   1.000
    Br141   Br   0.85123   0.99984   0.50002   1.000
    Br142   Br   0.14878   0.00030   0.49999   1.000
    Br143   Br   0.64878   0.00018   0.49999   1.000
    N144    N    0.24998   0.75396   0.00000   1.000
    N145    N    0.75003   0.75399   0.00000   1.000
    N146    N    0.24998   0.24601   0.99999   1.000
    N147    N    0.75003   0.24605   0.99999   1.000
    O148    O    0.31487   0.92091   0.90969   1.000
    O149    O    0.81504   0.91709   0.90947   1.000
    O150    O    0.18512   0.07911   0.90969   1.000
    O151    O    0.68497   0.08295   0.90946   1.000
    O152    O    0.18511   0.92091   0.09034   1.000
    O153    O    0.68496   0.91710   0.09055   1.000
    O154    O    0.31488   0.07911   0.09034   1.000
    O155    O    0.81504   0.08294   0.09055   1.000
    O156    O    0.18496   0.08294   0.09054   1.000
    O157    O    0.68513   0.07913   0.09033   1.000
    O158    O    0.31503   0.91707   0.09054   1.000
    O159    O    0.81488   0.92090   0.09033   1.000
    O160    O    0.31504   0.08294   0.90946   1.000
    O161    O    0.81489   0.07913   0.90968   1.000
    O162    O    0.18496   0.91708   0.90947   1.000
    O163    O    0.68513   0.92091   0.90968   1.000
loop_
    _geom_bond_atom_site_label_1
    _geom_bond_atom_site_label_2
    _geom_bond_distance
    _geom_bond_site_symmetry_2
    _ccdc_geom_bond_type
    C137   C139      1.38835      .   S
    C137   H49       1.09023      .   S
    C137   N147      1.34560  1_554   S
    C88    C126      1.40575      .   S
    C88    C134      1.40573  1_554   S
    C88    C90       1.48483  1_554   S
    C130   C128      1.38842      .   S
    C130   H42       1.08747      .   S
    C130   C90       1.40574  1_554   S
    C124   C126      1.38837      .   S
    C124   H36       1.09016      .   S
    C124   N144      1.34554      .   S
    C126   H38       1.08745      .   S
    C128   H40       1.09018      .   S
    C128   N146      1.34553  1_554   S
    C135   C133      1.38839      .   S
    C135   H47       1.08745      .   S
    C135   C89       1.40573      .   S
    C139   H51       1.08745      .   S
    C139   C91       1.40575  1_554   S
    C133   H45       1.09016      .   S
    C133   N145      1.34552      .   S
    O157   C115      1.27517  1_545   S
    O157   Zn3       2.06978  1_554   S
    O159   C123      1.27483  1_565   S
    O159   Zn1       2.06979  1_554   S
    O154   C122      1.27517  1_545   S
    O154   Zn2       2.06986  1_554   S
    O152   C114      1.27481  1_565   S
    O152   Zn0       2.06992      .   S
    O156   C114      1.27533      .   S
    O156   Zn2       2.06834  1_554   S
    O158   C122      1.27507      .   S
    O158   Zn0       2.06832      .   S
    O155   C123      1.27533      .   S
    O155   Zn3       2.06848  1_554   S
    O153   C115      1.27504      .   S
    O153   Zn1       2.06848  1_554   S
    C123   C121      1.49996      .   S
    C115   C113      1.49980      .   S
    C114   C112      1.49991      .   S
    C122   C120      1.49983      .   S
    C112   C62       1.40082  1_545   S
    C112   C70       1.40107      .   S
    C121   C75       1.40085  1_545   S
    C121   C67       1.40109      .   S
    C120   C66       1.40117  1_565   S
    C120   C74       1.40079      .   S
    C113   C71       1.40122  1_565   S
    C113   C63       1.40081      .   S
    H27    C75       1.08900      .   S
    H14    C62       1.08897      .   S
    H23    C71       1.08900      .   S
    H18    C66       1.08894      .   S
    H22    C70       1.08894      .   S
    H26    C74       1.08895      .   S
    H19    C67       1.08900      .   S
    H15    C63       1.08896      .   S
    C75    C73       1.39177      .   S
    C62    C60       1.39179      .   S
    C71    C69       1.39185      .   S
    C66    C64       1.39183      .   S
    C70    C68       1.39193      .   S
    C63    C61       1.39201      .   S
    C74    C72       1.39197      .   S
    C67    C65       1.39193      .   S
    C73    H25       1.09055      .   S
    C73    C119      1.40118  1_565   S
    C60    H12       1.09054      .   S
    C60    C110      1.40117  1_565   S
    C69    H21       1.09050      .   S
    C69    C111      1.40142  1_545   S
    C64    H16       1.09057      .   S
    C64    C118      1.40148  1_545   S
    C68    H20       1.09058      .   S
    C68    C110      1.40152      .   S
    C72    H24       1.09054      .   S
    C72    C118      1.40117      .   S
    C65    H17       1.09055      .   S
    C65    C119      1.40149      .   S
    C61    H13       1.08998      .   S
    C61    C111      1.40109      .   S
    C110   C108      1.49005      .   S
    C111   C109      1.49012      .   S
    C119   C117      1.49012      .   S
    C118   C116      1.49009      .   S
    C108   C117      1.41152  1_455   S
    C108   C86       1.40327      .   S
    C109   C116      1.41159      .   S
    C109   C87       1.40329  1_565   S
    C116   C84       1.40331      .   S
    C117   C85       1.40320  1_545   S
    Br143  C87       1.92413      .   S
    Br142  C86       1.92410      .   S
    C87    C101      1.40331      .   S
    C86    C100      1.40334  1_545   S
    C85    Br141     1.92410      .   S
    C85    C93       1.40327      .   S
    C84    Br140     1.92410      .   S
    C84    C92       1.40315  1_565   S
    C100   C93       1.41152  1_455   S
    C100   C102      1.49001      .   S
    C92    C101      1.41159      .   S
    C92    C94       1.49015      .   S
    C101   C103      1.49010      .   S
    C93    C95       1.49017      .   S
    C102   C80       1.40117      .   S
    C102   C56       1.40146  1_565   S
    C103   C57       1.40147      .   S
    C103   C81       1.40108  1_545   S
    C94    C76       1.40148      .   S
    C94    C52       1.40055  1_545   S
    C95    C53       1.40114      .   S
    C95    C77       1.40145  1_565   S
    H9     C57       1.09065      .   S
    H28    C76       1.09053      .   S
    H32    C80       1.09054      .   S
    H5     C53       1.09054      .   S
    H33    C81       1.09052      .   S
    H4     C52       1.08998      .   S
    H8     C56       1.09053      .   S
    H29    C77       1.09053      .   S
    C57    C59       1.39183      .   S
    C76    C78       1.39204      .   S
    C80    C82       1.39195      .   S
    C53    C55       1.39192      .   S
    C52    C54       1.39297      .   S
    C81    C83       1.39184      .   S
    C56    C58       1.39190      .   S
    C77    C79       1.39179      .   S
    C59    H11       1.08898      .   S
    C59    C105      1.40111      .   S
    C78    H30       1.08894      .   S
    C78    C96       1.40108      .   S
    C82    H34       1.08896      .   S
    C82    C104      1.40084      .   S
    C55    H7        1.08898      .   S
    C55    C97       1.40078      .   S
    C83    H35       1.08899      .   S
    C83    C105      1.40087  1_565   S
    C54    H6        1.08899      .   S
    C54    C96       1.40087  1_565   S
    C79    H31       1.08899      .   S
    C79    C97       1.40116  1_545   S
    C58    H10       1.08894      .   S
    C58    C104      1.40119  1_545   S
    C105   C107      1.49995      .   S
    C96    C98       1.49987      .   S
    C104   C106      1.49884      .   S
    C97    C99       1.49993      .   S
    C106   O162      1.27545      .   S
    C106   O150      1.27563  1_565   S
    C98    O160      1.27535      .   S
    C98    O148      1.27487  1_545   S
    C107   O151      1.27530      .   S
    C107   O163      1.27479  1_545   S
    C99    O149      1.27504      .   S
    C99    O161      1.27514  1_565   S
    O151   Zn3       2.06811      .   S
    O160   Zn2       2.06810      .   S
    O162   Zn0       2.06818  1_556   S
    O149   Zn1       2.06808      .   S
    O163   Zn1       2.06939      .   S
    O161   Zn3       2.06953      .   S
    O150   Zn2       2.06930      .   S
    O148   Zn0       2.06956  1_556   S
    H41    C129      1.09017      .   S
    H37    C125      1.09015      .   S
    H48    C136      1.09018      .   S
    H43    C131      1.08744      .   S
    H39    C127      1.08747      .   S
    H44    C132      1.09018      .   S
    H50    C138      1.08744      .   S
    H46    C134      1.08747      .   S
    C131   C129      1.38837      .   S
    C131   C91       1.40575      .   S
    C129   N147      1.34552      .   S
    C125   C127      1.38842      .   S
    C125   N145      1.34554  1_556   S
    C127   C89       1.40575  1_556   S
    C132   C134      1.38841      .   S
    C132   N144      1.34554  1_556   S
    C136   C138      1.38829      .   S
    C136   N146      1.34561      .   S
    C138   C90       1.40573      .   S
    Zn1    N145      2.06799  1_556   S
    Zn2    N146      2.06814      .   S
    Zn3    N147      2.06789      .   S
    C91    C89       1.48483  1_556   S
    Zn0    N144      2.06776      .   S
    Zn0    Zn2       2.75684  1_564   S
    Zn1    Zn3       2.75690  1_565   S
