# CIF file generated by openbabel 2.4.90, see http://openbabel.sf.net
data_I
_chemical_name_common ''
_cell_length_a 10.246
_cell_length_b 21.667
_cell_length_c 12.269
_cell_angle_alpha 90.126
_cell_angle_beta 90.077
_cell_angle_gamma 93.863
_space_group_name_H-M_alt 'P 1'
_space_group_name_Hall 'P 1'
loop_
    _symmetry_equiv_pos_as_xyz
    x,y,z
loop_
    _atom_site_label
    _atom_site_type_symbol
    _atom_site_fract_x
    _atom_site_fract_y
    _atom_site_fract_z
    _atom_site_occupancy
    Al0     Al   0.00005   0.49979   0.50005   1.000
    Al1     Al   0.49933   0.99910   0.50001   1.000
    Al2     Al   0.50001   0.49988   0.50000   1.000
    Al3     Al   0.00016   0.00003   0.99990   1.000
    Al4     Al   0.00002   0.50000   0.00000   1.000
    Al5     Al   0.50000   0.50000   0.90000   1.000
    Al6     Al   0.38234   0.04691   0.74954   1.000
    Al7     Al   0.38277   0.54701   0.75021   1.000
    Al8     Al   0.88212   0.04755   0.74985   1.000
    Al9     Al   0.88277   0.54700   0.75020   1.000
    Al10    Al   0.11724   0.45294   0.24979   1.000
    Al11    Al   0.11775   0.95244   0.25013   1.000
    Al12    Al   0.61722   0.45296   0.24981   1.000
    Al13    Al   0.61798   0.95244   0.25006   1.000
    P14     P    0.22550   0.41569   0.47724   1.000
    P15     P    0.22612   0.91618   0.47814   1.000
    P16     P    0.72540   0.41571   0.47726   1.000
    P17     P    0.72703   0.91617   0.47784   1.000
    P18     P    0.27367   0.08396   0.97687   1.000
    P19     P    0.27320   0.58327   0.97779   1.000
    P20     P    0.77362   0.08402   0.97740   1.000
    P21     P    0.77319   0.58327   0.97777   1.000
    P22     P    0.27310   0.08323   0.52147   1.000
    P23     P    0.27453   0.58397   0.52271   1.000
    P24     P    0.77218   0.08320   0.52186   1.000
    P25     P    0.77463   0.58393   0.52266   1.000
    P26     P    0.22682   0.41672   0.02218   1.000
    P27     P    0.22662   0.91603   0.02266   1.000
    P28     P    0.72682   0.41675   0.02222   1.000
    P29     P    0.72661   0.91602   0.02251   1.000
    C30     C    0.24590   0.28048   0.49800   1.000
    Al31    Al   0.99942   0.99992   0.49999   1.000
    C32     C    0.24331   0.78074   0.49702   1.000
    C33     C    0.74478   0.28043   0.49803   1.000
    C34     C    0.74542   0.78079   0.49641   1.000
    C35     C    0.23561   0.33647   0.49420   1.000
    C36     C    0.23352   0.83675   0.49355   1.000
    C37     C    0.73509   0.33646   0.49427   1.000
    C38     C    0.73606   0.83682   0.49283   1.000
    C39     C    0.25553   0.21944   0.99751   1.000
    C40     C    0.25475   0.71881   0.99688   1.000
    C41     C    0.75554   0.21947   0.99820   1.000
    C42     C    0.75471   0.71881   0.99670   1.000
    C43     C    0.26498   0.16339   0.99304   1.000
    C44     C    0.26423   0.66275   0.99288   1.000
    C45     C    0.76497   0.16342   0.99390   1.000
    C46     C    0.76421   0.66275   0.99283   1.000
    C47     C    0.25648   0.21876   0.50231   1.000
    C48     C    0.25411   0.71908   0.50140   1.000
    C49     C    0.75483   0.21868   0.50232   1.000
    C50     C    0.75556   0.71909   0.50099   1.000
    C51     C    0.26599   0.16271   0.50570   1.000
    C52     C    0.26454   0.66312   0.50535   1.000
    C53     C    0.76393   0.16260   0.50576   1.000
    C54     C    0.76516   0.66308   0.50516   1.000
    C55     C    0.24536   0.28119   0.00271   1.000
    C56     C    0.24465   0.78057   0.00185   1.000
    C57     C    0.74538   0.28122   0.00316   1.000
    C58     C    0.74461   0.78057   0.00167   1.000
    C59     C    0.23581   0.33724   0.00000   1.000
    C60     C    0.23528   0.83663   0.00000   1.000
    C61     C    0.73581   0.33727   0.00000   1.000
    C62     C    0.73523   0.83663   0.00000   1.000
    O63     O    0.10114   0.43368   0.53339   1.000
    O64     O    0.10226   0.93467   0.53455   1.000
    O65     O    0.60113   0.43380   0.53342   1.000
    O66     O    0.60218   0.93369   0.53380   1.000
    O67     O    0.21804   0.42395   0.35139   1.000
    O68     O    0.22146   0.92560   0.35243   1.000
    O69     O    0.71799   0.42396   0.35141   1.000
    O70     O    0.72222   0.92579   0.35217   1.000
    O71     O    0.34995   0.44772   0.52316   1.000
    O72     O    0.35084   0.94676   0.52642   1.000
    O73     O    0.84996   0.44763   0.52318   1.000
    O74     O    0.85095   0.94733   0.52668   1.000
    O75     O    0.39814   0.06605   0.03315   1.000
    O76     O    0.39808   0.56576   0.03398   1.000
    O77     O    0.89818   0.06601   0.03337   1.000
    O78     O    0.89807   0.56576   0.03396   1.000
    O79     O    0.27920   0.07456   0.85111   1.000
    O80     O    0.27789   0.57323   0.85218   1.000
    O81     O    0.77896   0.07480   0.85158   1.000
    O82     O    0.77788   0.57323   0.85216   1.000
    O83     O    0.14917   0.05278   0.02380   1.000
    O84     O    0.14932   0.55217   0.02626   1.000
    O85     O    0.64916   0.05275   0.02423   1.000
    O86     O    0.64931   0.55217   0.02624   1.000
    O87     O    0.39630   0.06430   0.46460   1.000
    O88     O    0.39883   0.56590   0.46660   1.000
    O89     O    0.89576   0.06481   0.46484   1.000
    O90     O    0.89886   0.56577   0.46658   1.000
    O91     O    0.27929   0.07415   0.64722   1.000
    O92     O    0.28193   0.57592   0.64860   1.000
    O93     O    0.77821   0.07436   0.64766   1.000
    O94     O    0.78197   0.57591   0.64856   1.000
    O95     O    0.14764   0.05275   0.47420   1.000
    O96     O    0.14998   0.55201   0.47688   1.000
    O97     O    0.64737   0.05200   0.47486   1.000
    O98     O    0.64997   0.55206   0.47686   1.000
    O99     O    0.10193   0.43425   0.96601   1.000
    O100    O    0.10215   0.93405   0.96657   1.000
    O101    O    0.60193   0.43425   0.96603   1.000
    O102    O    0.60213   0.93409   0.96649   1.000
    O103    O    0.22211   0.42674   0.14700   1.000
    O104    O    0.22111   0.92524   0.14846   1.000
    O105    O    0.72212   0.42678   0.14783   1.000
    O106    O    0.72111   0.92519   0.14830   1.000
    O107    O    0.35070   0.44784   0.97375   1.000
    O108    O    0.35113   0.94729   0.97500   1.000
    O109    O    0.85069   0.44785   0.97375   1.000
    O110    O    0.85113   0.94729   0.97581   1.000
loop_
    _geom_bond_atom_site_label_1
    _geom_bond_atom_site_label_2
    _geom_bond_distance
    _geom_bond_site_symmetry_2
    _ccdc_geom_bond_type
    C59    C55       1.22545      .   S
    C59    P26       1.75135      .   S
    C60    C56       1.22509      .   S
    C60    P27       1.75021      .   S
    C61    C57       1.22570      .   S
    C61    P28       1.75143      .   S
    C62    C58       1.22507      .   S
    C62    P29       1.74982      .   S
    C58    C42       1.35023  1_554   S
    C56    C40       1.35024  1_554   S
    C55    C39       1.35030  1_554   S
    C57    C41       1.35019  1_554   S
    P26    O103      1.54755      .   S
    P26    O99       1.52341  1_554   S
    P26    O107      1.51900  1_554   S
    P28    O105      1.55717      .   S
    P28    O101      1.52337  1_554   S
    P28    O109      1.51898  1_554   S
    P29    O106      1.55720      .   S
    P29    O102      1.52257  1_554   S
    P29    O110      1.51738  1_554   S
    P27    O104      1.55746      .   S
    P27    O100      1.52269  1_554   S
    P27    O108      1.52169  1_554   S
    O83    P18       1.51751  1_554   S
    O83    Al3       1.86698  1_554   S
    O85    P20       1.51742  1_554   S
    O86    P21       1.51897  1_554   S
    O84    P19       1.51898  1_554   S
    O84    Al4       1.86695      .   S
    O75    P18       1.52290  1_554   S
    O77    P20       1.52268  1_554   S
    O77    Al3       1.87189  1_654   S
    O78    P21       1.52337  1_554   S
    O78    Al4       1.86920  1_655   S
    O76    P19       1.52339  1_554   S
    O103   Al10      1.77472      .   S
    O105   Al12      1.76773      .   S
    O106   Al13      1.76298      .   S
    O104   Al11      1.76320      .   S
    Al10   O67       1.76137      .   S
    Al12   O69       1.76125      .   S
    Al11   O68       1.76787      .   S
    O67    P14       1.55715      .   S
    O69    P16       1.55711      .   S
    O70    P17       1.55746      .   S
    O68    P15       1.55732      .   S
    O87    Al1       1.87118  1_545   S
    O87    P22       1.52296      .   S
    O89    Al31      1.86919  1_545   S
    O89    P24       1.52329      .   S
    O90    Al0       1.86774  1_655   S
    O90    P25       1.52224      .   S
    O88    Al2       1.86814      .   S
    O88    P23       1.52243      .   S
    O95    Al31      1.86685  1_445   S
    O95    P22       1.51883      .   S
    O97    Al1       1.86500  1_545   S
    O97    P24       1.51820      .   S
    O98    Al2       1.86777      .   S
    O98    P25       1.51706      .   S
    O96    Al0       1.86799      .   S
    O96    P23       1.51707      .   S
    P14    C35       1.73946      .   S
    P14    O71       1.51722      .   S
    P14    O63       1.52261      .   S
    P16    C37       1.73947      .   S
    P16    O73       1.51725      .   S
    P16    O65       1.52256      .   S
    P17    C38       1.73816      .   S
    P17    O74       1.51914      .   S
    P17    O66       1.52261      .   S
    P15    C36       1.73838      .   S
    P15    O72       1.51827      .   S
    P15    O64       1.52302      .   S
    C38    C34       1.22518      .   S
    C36    C32       1.22532      .   S
    C35    C30       1.22569      .   S
    C37    C33       1.22569      .   S
    C34    C50       1.34910      .   S
    C32    C48       1.34926      .   S
    C30    C47       1.35003      .   S
    C33    C49       1.34997      .   S
    Al31   O74       1.86788      .   S
    Al31   O64       1.86837  1_655   S
    Al2    O71       1.86825      .   S
    Al2    O65       1.86895      .   S
    Al1    O72       1.86447      .   S
    Al1    O66       1.86905      .   S
    Al0    O73       1.86838  1_455   S
    Al0    O63       1.86905      .   S
    C50    C54       1.22520      .   S
    C48    C52       1.22534      .   S
    C47    C51       1.22572      .   S
    C49    C53       1.22570      .   S
    C54    P25       1.73791      .   S
    C52    P23       1.73833      .   S
    C51    P22       1.73978      .   S
    C53    P24       1.73975      .   S
    P22    O91       1.55747      .   S
    P24    O93       1.55737      .   S
    P25    O94       1.55707      .   S
    P23    O92       1.55706      .   S
    O91    Al6       1.76725      .   S
    O93    Al8       1.76796      .   S
    O94    Al9       1.76107      .   S
    O92    Al7       1.76101      .   S
    Al6    O79       1.76476      .   S
    Al8    O81       1.76295      .   S
    Al9    O82       1.76788      .   S
    Al7    O80       1.76789      .   S
    O79    P18       1.55749      .   S
    O81    P20       1.55762      .   S
    O82    P21       1.55719      .   S
    O80    P19       1.55717      .   S
    O99    Al4       1.86899  1_556   S
    O101   Al5       1.99495      .   S
    O100   Al3       1.87152  1_565   S
    O107   Al5       2.05222      .   S
    O109   Al4       1.86700  1_656   S
    O110   Al3       1.86727  1_665   S
    P18    C43       1.74018      .   S
    P20    C45       1.73987      .   S
    P21    C46       1.74021      .   S
    P19    C44       1.74022      .   S
    C46    C42       1.22587      .   S
    C44    C40       1.22590      .   S
    C43    C39       1.22592      .   S
    C45    C41       1.22584      .   S
    O70    Al13      1.76812      .   S
