# CIF file generated by openbabel 2.4.90, see http://openbabel.sf.net
data_I
_chemical_name_common ''
_cell_length_a 10.246
_cell_length_b 21.667
_cell_length_c 12.269
_cell_angle_alpha 90.126
_cell_angle_beta 90.077
_cell_angle_gamma 93.863
_space_group_name_H-M_alt 'P 1'
_space_group_name_Hall 'P 1'
loop_
    _symmetry_equiv_pos_as_xyz
    x,y,z
loop_
    _atom_site_label
    _atom_site_type_symbol
    _atom_site_fract_x
    _atom_site_fract_y
    _atom_site_fract_z
    _atom_site_occupancy
    Al0     Al   0.00005   0.49979   0.50005   1.000
    Al1     Al   0.49933   0.99910   0.50001   1.000
    Al2     Al   0.50001   0.49988   0.50000   1.000
    Al3     Al   0.00016   0.00003   0.99990   1.000
    Al4     Al   0.00002   0.50000   0.00000   1.000
    Al5     Al   0.50000   0.50000   0.90000   1.000
    Al6     Al   0.38234   0.04691   0.74954   1.000
    Al7     Al   0.38277   0.54701   0.75021   1.000
    Al8     Al   0.88212   0.04755   0.74985   1.000
    Al9     Al   0.88277   0.54700   0.75020   1.000
    Al10    Al   0.11724   0.45294   0.24979   1.000
    Al11    Al   0.11775   0.95244   0.25013   1.000
    Al12    Al   0.61722   0.45296   0.24981   1.000
    Al13    Al   0.61798   0.95244   0.25006   1.000
    Al14    Al   0.99942   0.99992   0.49999   1.000
