# CIF file generated by openbabel 2.4.90, see http://openbabel.sf.net
data_I
_chemical_name_common ''
_cell_length_a 10.246
_cell_length_b 21.667
_cell_length_c 12.269
_cell_angle_alpha 90.126
_cell_angle_beta 90.077
_cell_angle_gamma 93.863
_space_group_name_H-M_alt 'P 1'
_space_group_name_Hall 'P 1'
loop_
    _symmetry_equiv_pos_as_xyz
    x,y,z
loop_
    _atom_site_label
    _atom_site_type_symbol
    _atom_site_fract_x
    _atom_site_fract_y
    _atom_site_fract_z
    _atom_site_occupancy
    Zr0     Zr   0.99942   0.99992   0.49999   1.000
    Zr1     Zr   0.00005   0.49979   0.50005   1.000
    Zr2     Zr   0.49933   0.99910   0.50001   1.000
    Zr3     Zr   0.50001   0.49988   0.50000   1.000
    Zr4     Zr   0.00016   0.00003   0.99990   1.000
    Zr5     Zr   0.00002   0.50000   0.00000   1.000
    Zr6     Zr   0.50000   0.50000   0.90000   1.000
    Zr7     Zr   0.38234   0.04691   0.74954   1.000
    Zr8     Zr   0.38277   0.54701   0.75021   1.000
    Zr9     Zr   0.88212   0.04755   0.74985   1.000
    Zr10    Zr   0.88277   0.54700   0.75020   1.000
    Zr11    Zr   0.11724   0.45294   0.24979   1.000
    Zr12    Zr   0.11775   0.95244   0.25013   1.000
    Zr13    Zr   0.61722   0.45296   0.24981   1.000
    Zr14    Zr   0.61798   0.95244   0.25006   1.000
    N15     N    0.74985   0.74965   0.99954   1.000
    O16     O    0.84945   0.64127   0.00826   1.000
    O17     O    0.83775   0.86165   0.99370   1.000
    O18     O    0.79009   0.65488   0.90036   1.000
    O19     O    0.70970   0.84423   0.09936   1.000
    N20     N    0.74889   0.24947   0.49957   1.000
    O21     O    0.64973   0.35815   0.50814   1.000
    O22     O    0.66112   0.13751   0.49350   1.000
    O23     O    0.84824   0.14092   0.49099   1.000
    O24     O    0.78952   0.15521   0.59916   1.000
    O25     O    0.70825   0.34397   0.40009   1.000
    O26     O    0.83694   0.36159   0.50559   1.000
    N27     N    0.24958   0.24949   0.49941   1.000
    O28     O    0.20861   0.34397   0.40000   1.000
    O29     O    0.15009   0.35811   0.50806   1.000
    O30     O    0.29020   0.15501   0.59889   1.000
    O31     O    0.16156   0.13791   0.49325   1.000
    O32     O    0.33728   0.36164   0.50549   1.000
    O33     O    0.34870   0.14059   0.49086   1.000
    N34     N    0.24987   0.74965   0.99954   1.000
    O35     O    0.29010   0.65489   0.90037   1.000
    O36     O    0.15051   0.85835   0.99139   1.000
    O37     O    0.20965   0.84425   0.09942   1.000
    O38     O    0.16227   0.63787   0.00634   1.000
    N39     N    0.25028   0.25035   0.99893   1.000
    O40     O    0.33782   0.36213   0.96790   1.000
    O41     O    0.20998   0.34509   0.09866   1.000
    O42     O    0.15063   0.35874   0.99097   1.000
    O43     O    0.16248   0.13838   0.00539   1.000
    O44     O    0.29053   0.15554   0.89963   1.000
    N45     N    0.75027   0.25038   0.99931   1.000
    O46     O    0.84972   0.14170   0.00797   1.000
    O47     O    0.83781   0.36215   0.99309   1.000
    O48     O    0.79040   0.15578   0.90001   1.000
    O49     O    0.70997   0.34513   0.09906   1.000
    O50     O    0.65062   0.35875   0.96616   1.000
    N51     N    0.75083   0.75004   0.50004   1.000
    O52     O    0.79160   0.65575   0.59971   1.000
    O53     O    0.65080   0.85821   0.50847   1.000
    O54     O    0.71047   0.84457   0.40058   1.000
    O55     O    0.83801   0.86183   0.50669   1.000
    O56     O    0.66291   0.63800   0.49424   1.000
    O57     O    0.85014   0.64141   0.49168   1.000
    N58     N    0.25012   0.75006   0.50030   1.000
    O59     O    0.20986   0.84454   0.40079   1.000
    O60     O    0.33760   0.86149   0.50676   1.000
    O61     O    0.15048   0.85868   0.50879   1.000
    O62     O    0.34977   0.64147   0.49180   1.000
    O63     O    0.16257   0.63798   0.49438   1.000
    O64     O    0.29123   0.65576   0.59985   1.000
loop_
    _geom_bond_atom_site_label_1
    _geom_bond_atom_site_label_2
    _geom_bond_distance
    _geom_bond_site_symmetry_2
    _ccdc_geom_bond_type
    N15    O16       2.62510  1_556   S
    Zr5    O16       3.52048  1_455   S
    N15    O17       2.53223      .   S
    Zr4    O17       3.33019  1_445   S
    N15    O18       2.44360      .   S
    Zr10   O18       3.16924      .   S
    N15    O19       2.44394  1_556   S
    Zr14   O19       3.17502      .   S
    N20    O21       2.62870      .   S
    Zr3    O21       3.52538      .   S
    N20    O22       2.53064      .   S
    Zr2    O22       3.32862  1_565   S
    N20    O23       2.62699      .   S
    Zr0    O23       3.51904  1_565   S
    N20    O24       2.44162      .   S
    Zr9    O24       3.17362      .   S
    N20    O25       2.44530      .   S
    Zr13   O25       3.18711      .   S
    N20    O26       2.53470      .   S
    Zr1    O26       3.33021  1_455   S
    N27    O28       2.44527      .   S
    Zr11   O28       3.18742      .   S
    N27    O29       2.62905      .   S
    Zr1    O29       3.52603      .   S
    N27    O30       2.44501      .   S
    Zr7    O30       3.17903      .   S
    N27    O31       2.52368      .   S
    Zr0    O31       3.32234  1_665   S
    N27    O32       2.53435      .   S
    Zr3    O32       3.32921      .   S
    N27    O33       2.63278      .   S
    Zr2    O33       3.52598  1_565   S
    N34    O35       2.44350      .   S
    Zr8    O35       3.16915      .   S
    N34    O36       2.62993      .   S
    Zr4    O36       3.52763  1_545   S
    N34    O37       2.44463  1_556   S
    Zr12   O37       3.17548      .   S
    N34    O38       2.52718  1_556   S
    Zr5    O38       3.31995      .   S
    N39    O40       2.55501      .   S
    Zr6    O40       3.42413      .   S
    N39    O41       2.44676  1_556   S
    Zr11   O41       3.17578      .   S
    N39    O42       2.62513      .   S
    Zr5    O42       3.52105  1_554   S
    N39    O43       2.53151  1_556   S
    Zr4    O43       3.32910  1_556   S
    N39    O44       2.44509      .   S
    Zr7    O44       3.17806      .   S
    N45    O46       2.63038  1_556   S
    Zr4    O46       3.52774  1_456   S
    N45    O47       2.52659      .   S
    Zr5    O47       3.31963  1_454   S
    N45    O48       2.44103      .   S
    Zr9    O48       3.17154      .   S
    N45    O49       2.44686  1_556   S
    Zr13   O49       3.17292      .   S
    N45    O50       2.65473      .   S
    Zr6    O50       3.61254      .   S
    N51    O52       2.44295      .   S
    Zr10   O52       3.18497      .   S
    N51    O53       2.62261      .   S
    Zr2    O53       3.51795      .   S
    N51    O54       2.44536      .   S
    Zr14   O54       3.17537      .   S
    N51    O55       2.52571      .   S
    Zr0    O55       3.32090      .   S
    N51    O56       2.53247      .   S
    Zr3    O56       3.32803      .   S
    N51    O57       2.62822      .   S
    Zr1    O57       3.52435  1_455   S
    N58    O59       2.44433      .   S
    Zr12   O59       3.17560      .   S
    N58    O60       2.51928      .   S
    Zr2    O60       3.31324      .   S
    N58    O61       2.62957      .   S
    Zr0    O61       3.52303  1_655   S
    N58    O62       2.62898      .   S
    Zr3    O62       3.52551      .   S
    N58    O63       2.53234      .   S
    Zr1    O63       3.32748      .   S
    N58    O64       2.44317      .   S
    Zr8    O64       3.18543      .   S
