# CIF file generated by openbabel 2.4.90, see http://openbabel.sf.net
data_I
_chemical_name_common ''
_cell_length_a 10.246
_cell_length_b 21.667
_cell_length_c 12.269
_cell_angle_alpha 90.126
_cell_angle_beta 90.077
_cell_angle_gamma 93.863
_space_group_name_H-M_alt 'P 1'
_space_group_name_Hall 'P 1'
loop_
    _symmetry_equiv_pos_as_xyz
    x,y,z
loop_
    _atom_site_label
    _atom_site_type_symbol
    _atom_site_fract_x
    _atom_site_fract_y
    _atom_site_fract_z
    _atom_site_occupancy
    C0      C    0.99942   0.99992   0.49999   1.000
    C1      C    0.00005   0.49979   0.50005   1.000
    C2      C    0.49933   0.99910   0.50001   1.000
    C3      C    0.50001   0.49988   0.50000   1.000
    C4      C    0.00016   0.00003   0.99990   1.000
    C5      C    0.00002   0.50000   0.00000   1.000
    C6      C    0.50015   0.00004   0.30000   1.000
    C7      C    0.50000   0.50000   0.90000   1.000
    C8      C    0.38234   0.04691   0.74954   1.000
    C9      C    0.38277   0.54701   0.75021   1.000
    C10     C    0.88212   0.04755   0.74985   1.000
    C11     C    0.88277   0.54700   0.75020   1.000
    C12     C    0.11724   0.45294   0.24979   1.000
    C13     C    0.11775   0.95244   0.25013   1.000
    C14     C    0.61722   0.45296   0.24981   1.000
    C15     C    0.61798   0.95244   0.25006   1.000
    C16     C    0.22550   0.41569   0.47724   1.000
    C17     C    0.22612   0.91618   0.47814   1.000
    C18     C    0.72540   0.41571   0.47726   1.000
    C19     C    0.72703   0.91617   0.47784   1.000
    C20     C    0.27367   0.08396   0.97687   1.000
    C21     C    0.27320   0.58327   0.97779   1.000
    C22     C    0.77362   0.08402   0.97740   1.000
    C23     C    0.77319   0.58327   0.97777   1.000
    C24     C    0.27310   0.08323   0.52147   1.000
    C25     C    0.27453   0.58397   0.52271   1.000
    C26     C    0.77218   0.08320   0.52186   1.000
    C27     C    0.77463   0.58393   0.52266   1.000
    C28     C    0.22682   0.41672   0.02218   1.000
    C29     C    0.22662   0.91603   0.02266   1.000
    C30     C    0.72682   0.41675   0.02222   1.000
    C31     C    0.72661   0.91602   0.02251   1.000
    C32     C    0.24590   0.28048   0.49800   1.000
    C33     C    0.24331   0.78074   0.49702   1.000
    C34     C    0.74478   0.28043   0.49803   1.000
    C35     C    0.74542   0.78079   0.49641   1.000
    C36     C    0.23561   0.33647   0.49420   1.000
    C37     C    0.23352   0.83675   0.49355   1.000
    C38     C    0.73509   0.33646   0.49427   1.000
    C39     C    0.73606   0.83682   0.49283   1.000
    C40     C    0.25553   0.21944   0.99751   1.000
    C41     C    0.25475   0.71881   0.99688   1.000
    C42     C    0.75554   0.21947   0.99820   1.000
    C43     C    0.75471   0.71881   0.99670   1.000
    C44     C    0.26498   0.16339   0.99304   1.000
    C45     C    0.26423   0.66275   0.99288   1.000
    C46     C    0.76497   0.16342   0.99390   1.000
    C47     C    0.76421   0.66275   0.99283   1.000
    C48     C    0.25648   0.21876   0.50231   1.000
    C49     C    0.25411   0.71908   0.50140   1.000
    C50     C    0.75483   0.21868   0.50232   1.000
    C51     C    0.75556   0.71909   0.50099   1.000
    C52     C    0.26599   0.16271   0.50570   1.000
    C53     C    0.26454   0.66312   0.50535   1.000
    C54     C    0.76393   0.16260   0.50576   1.000
    C55     C    0.76516   0.66308   0.50516   1.000
    C56     C    0.24536   0.28119   0.00271   1.000
    C57     C    0.24465   0.78057   0.00185   1.000
    C58     C    0.74538   0.28122   0.00316   1.000
    C59     C    0.74461   0.78057   0.00167   1.000
    C60     C    0.23581   0.33724   0.00000   1.000
    C61     C    0.23528   0.83663   0.00000   1.000
    C62     C    0.73581   0.33727   0.00000   1.000
    C63     C    0.73523   0.83663   0.00000   1.000
    C64     C    0.10114   0.43368   0.53339   1.000
    C65     C    0.10226   0.93467   0.53455   1.000
    C66     C    0.60113   0.43380   0.53342   1.000
    C67     C    0.60218   0.93369   0.53380   1.000
    C68     C    0.21804   0.42395   0.35139   1.000
    C69     C    0.22146   0.92560   0.35243   1.000
    C70     C    0.71799   0.42396   0.35141   1.000
    C71     C    0.72222   0.92579   0.35217   1.000
    C72     C    0.34995   0.44772   0.52316   1.000
    C73     C    0.35084   0.94676   0.52642   1.000
    C74     C    0.84996   0.44763   0.52318   1.000
    C75     C    0.85095   0.94733   0.52668   1.000
    C76     C    0.39814   0.06605   0.03315   1.000
    C77     C    0.39808   0.56576   0.03398   1.000
    C78     C    0.89818   0.06601   0.03337   1.000
    C79     C    0.89807   0.56576   0.03396   1.000
    C80     C    0.27920   0.07456   0.85111   1.000
    C81     C    0.27789   0.57323   0.85218   1.000
    C82     C    0.77896   0.07480   0.85158   1.000
    C83     C    0.77788   0.57323   0.85216   1.000
    C84     C    0.14917   0.05278   0.02380   1.000
    C85     C    0.14932   0.55217   0.02626   1.000
    C86     C    0.64916   0.05275   0.02423   1.000
    C87     C    0.64931   0.55217   0.02624   1.000
    C88     C    0.39630   0.06430   0.46460   1.000
    C89     C    0.39883   0.56590   0.46660   1.000
    C90     C    0.89576   0.06481   0.46484   1.000
    C91     C    0.89886   0.56577   0.46658   1.000
    C92     C    0.27929   0.07415   0.64722   1.000
    C93     C    0.28193   0.57592   0.64860   1.000
    C94     C    0.77821   0.07436   0.64766   1.000
    C95     C    0.78197   0.57591   0.64856   1.000
    C96     C    0.14764   0.05275   0.47420   1.000
    C97     C    0.14998   0.55201   0.47688   1.000
    C98     C    0.64737   0.05200   0.47486   1.000
    C99     C    0.64997   0.55206   0.47686   1.000
    C100    C    0.10193   0.43425   0.96601   1.000
    C101    C    0.10215   0.93405   0.96657   1.000
    C102    C    0.60193   0.43425   0.96603   1.000
    C103    C    0.60213   0.93409   0.96649   1.000
    C104    C    0.22211   0.42674   0.14700   1.000
    C105    C    0.22111   0.92524   0.14846   1.000
    C106    C    0.72212   0.42678   0.14783   1.000
    C107    C    0.72111   0.92519   0.14830   1.000
    C108    C    0.35070   0.44784   0.97375   1.000
    C109    C    0.35113   0.94729   0.97500   1.000
    C110    C    0.85069   0.44785   0.97375   1.000
    C111    C    0.85113   0.94729   0.97581   1.000
    C112    C    0.49439   0.02134   0.65249   1.000
    C113    C    0.49394   0.52012   0.65280   1.000
    C114    C    0.99483   0.02373   0.65220   1.000
    C115    C    0.99395   0.52010   0.65286   1.000
    C116    C    0.00508   0.47745   0.15231   1.000
    C117    C    0.00605   0.97871   0.15270   1.000
    C118    C    0.50507   0.47745   0.15231   1.000
    C119    C    0.50607   0.97870   0.15271   1.000
    C120    C    0.00608   0.47984   0.34711   1.000
    C121    C    0.00502   0.97629   0.34775   1.000
    C122    C    0.50605   0.47986   0.34712   1.000
    C123    C    0.50509   0.97618   0.34764   1.000
    C124    C    0.49418   0.02130   0.84731   1.000
    C125    C    0.49493   0.52256   0.84769   1.000
    C126    C    0.99397   0.02131   0.84722   1.000
    C127    C    0.99493   0.52256   0.84769   1.000
    O128    O    0.24058   0.30921   0.00136   1.000
    O129    O    0.23131   0.37698   0.01109   1.000
    O130    O    0.23997   0.80860   0.00093   1.000
    O131    O    0.23095   0.87633   0.01133   1.000
    O132    O    0.74059   0.30924   0.00158   1.000
    O133    O    0.73132   0.37701   0.01111   1.000
    O134    O    0.73992   0.80860   0.00084   1.000
    O135    O    0.73092   0.87632   0.01125   1.000
    O136    O    0.74966   0.74969   0.99918   1.000
    O137    O    0.24970   0.74969   0.99936   1.000
    O138    O    0.25045   0.25032   0.00011   1.000
    O139    O    0.75046   0.25034   0.00068   1.000
    O140    O    0.22446   0.42173   0.08459   1.000
    O141    O    0.16437   0.42548   0.99410   1.000
    O142    O    0.28876   0.43228   0.99796   1.000
    O143    O    0.72447   0.42176   0.08502   1.000
    O144    O    0.66437   0.42550   0.99413   1.000
    O145    O    0.78876   0.43230   0.99799   1.000
    O146    O    0.72386   0.92061   0.08540   1.000
    O147    O    0.66437   0.92505   0.99450   1.000
    O148    O    0.78887   0.93166   0.99916   1.000
    O149    O    0.22387   0.92063   0.08556   1.000
    O150    O    0.16439   0.92504   0.99462   1.000
    O151    O    0.28888   0.93166   0.99883   1.000
    O152    O    0.21142   0.06837   0.00033   1.000
    O153    O    0.07467   0.02640   0.01185   1.000
    O154    O    0.71139   0.06839   0.00082   1.000
    O155    O    0.71125   0.56772   0.00200   1.000
    O156    O    0.21126   0.56772   0.00202   1.000
    O157    O    0.07467   0.52609   0.01313   1.000
    O158    O    0.33591   0.07500   0.00501   1.000
    O159    O    0.83590   0.07501   0.00539   1.000
    O160    O    0.94917   0.03302   0.01663   1.000
    O161    O    0.83563   0.57452   0.00587   1.000
    O162    O    0.94905   0.53288   0.01698   1.000
    O163    O    0.33564   0.57452   0.00589   1.000
    O164    O    0.16967   0.43984   0.19839   1.000
    O165    O    0.66967   0.43987   0.19882   1.000
    O166    O    0.66955   0.93882   0.19918   1.000
    O167    O    0.16943   0.93884   0.19929   1.000
    O168    O    0.56114   0.46520   0.20106   1.000
    O169    O    0.06116   0.46519   0.20105   1.000
    O170    O    0.06190   0.96557   0.20141   1.000
    O171    O    0.50311   0.98937   0.22635   1.000
    O172    O    0.06166   0.46639   0.29845   1.000
    O173    O    0.16764   0.43844   0.30059   1.000
    O174    O    0.56163   0.46641   0.29847   1.000
    O175    O    0.66761   0.43846   0.30061   1.000
    O176    O    0.55907   0.97624   0.27503   1.000
    O177    O    0.06139   0.96436   0.29894   1.000
    O178    O    0.16961   0.93902   0.30128   1.000
    O179    O    0.50262   0.98811   0.32382   1.000
    O180    O    0.22177   0.41982   0.41431   1.000
    O181    O    0.72170   0.41983   0.41434   1.000
    O182    O    0.72462   0.92098   0.41500   1.000
    O183    O    0.22379   0.92089   0.41528   1.000
    O184    O    0.44782   0.03170   0.48231   1.000
    O185    O    0.33470   0.07376   0.49304   1.000
    O186    O    0.94759   0.03237   0.48241   1.000
    O187    O    0.83397   0.07401   0.49335   1.000
    O188    O    0.94945   0.53278   0.48332   1.000
    O189    O    0.83675   0.57485   0.49462   1.000
    O190    O    0.44942   0.53289   0.48330   1.000
    O191    O    0.33668   0.57493   0.49466   1.000
    O192    O    0.07353   0.02633   0.48710   1.000
    O193    O    0.21037   0.06799   0.49784   1.000
    O194    O    0.57335   0.02555   0.48744   1.000
    O195    O    0.70978   0.06760   0.49836   1.000
    O196    O    0.57499   0.52597   0.48843   1.000
    O197    O    0.71230   0.56800   0.49976   1.000
    O198    O    0.07501   0.52590   0.48846   1.000
    O199    O    0.21225   0.56799   0.49979   1.000
    O200    O    0.23056   0.37608   0.48572   1.000
    O201    O    0.28773   0.43170   0.50020   1.000
    O202    O    0.16332   0.42468   0.50531   1.000
    O203    O    0.73025   0.37609   0.48577   1.000
    O204    O    0.78768   0.43167   0.50022   1.000
    O205    O    0.66326   0.42475   0.50534   1.000
    O206    O    0.73154   0.87650   0.48534   1.000
    O207    O    0.78899   0.93175   0.50226   1.000
    O208    O    0.66461   0.92493   0.50582   1.000
    O209    O    0.22981   0.87647   0.48584   1.000
    O210    O    0.28848   0.93147   0.50228   1.000
    O211    O    0.16419   0.92542   0.50635   1.000
    O212    O    0.74074   0.80880   0.49462   1.000
    O213    O    0.23841   0.80875   0.49529   1.000
    O214    O    0.24076   0.30847   0.49610   1.000
    O215    O    0.73994   0.30845   0.49615   1.000
    O216    O    0.75049   0.74994   0.49870   1.000
    O217    O    0.24871   0.74991   0.49921   1.000
    O218    O    0.25119   0.24962   0.50016   1.000
    O219    O    0.74980   0.24956   0.50017   1.000
    O220    O    0.92519   0.97363   0.51333   1.000
    O221    O    0.05084   0.96730   0.51727   1.000
    O222    O    0.42498   0.47380   0.51158   1.000
    O223    O    0.55057   0.46684   0.51671   1.000
    O224    O    0.42509   0.97293   0.51321   1.000
    O225    O    0.55076   0.96639   0.51690   1.000
    O226    O    0.92500   0.47371   0.51161   1.000
    O227    O    0.05059   0.46673   0.51672   1.000
    O228    O    0.76036   0.69108   0.50308   1.000
    O229    O    0.25932   0.69110   0.50337   1.000
    O230    O    0.26123   0.19074   0.50401   1.000
    O231    O    0.75938   0.19064   0.50404   1.000
    O232    O    0.76989   0.62351   0.51391   1.000
    O233    O    0.26953   0.62354   0.51403   1.000
    O234    O    0.26954   0.12297   0.51359   1.000
    O235    O    0.76806   0.12290   0.51381   1.000
    O236    O    0.27619   0.07869   0.58435   1.000
    O237    O    0.77520   0.07878   0.58476   1.000
    O238    O    0.77830   0.57993   0.58561   1.000
    O239    O    0.27823   0.57995   0.58566   1.000
    O240    O    0.33081   0.06053   0.69838   1.000
    O241    O    0.83016   0.06096   0.69876   1.000
    O242    O    0.83237   0.56146   0.69938   1.000
    O243    O    0.33235   0.56147   0.69940   1.000
    O244    O    0.93847   0.03564   0.70103   1.000
    O245    O    0.43837   0.03412   0.70102   1.000
    O246    O    0.43835   0.53356   0.70150   1.000
    O247    O    0.93836   0.53355   0.70153   1.000
    O248    O    0.43826   0.03410   0.79842   1.000
    O249    O    0.33077   0.06073   0.80033   1.000
    O250    O    0.93804   0.03443   0.79853   1.000
    O251    O    0.83054   0.06118   0.80071   1.000
    O252    O    0.93885   0.53478   0.79895   1.000
    O253    O    0.83033   0.56012   0.80118   1.000
    O254    O    0.33033   0.56012   0.80119   1.000
    O255    O    0.49746   0.51128   0.87384   1.000
    O256    O    0.27644   0.07926   0.91399   1.000
    O257    O    0.77629   0.07941   0.91449   1.000
    O258    O    0.77553   0.57825   0.91497   1.000
    O259    O    0.27554   0.57825   0.91499   1.000
    O260    O    0.05098   0.46713   0.98301   1.000
    O261    O    0.55097   0.46713   0.93301   1.000
    O262    O    0.05115   0.96704   0.98323   1.000
    O263    O    0.42535   0.47392   0.93688   1.000
    O264    O    0.92536   0.47393   0.98687   1.000
    O265    O    0.92565   0.97366   0.98785   1.000
    O266    O    0.26933   0.12368   0.98496   1.000
    O267    O    0.76930   0.12372   0.98565   1.000
    O268    O    0.76870   0.62301   0.98530   1.000
    O269    O    0.26871   0.62301   0.98533   1.000
    O270    O    0.75946   0.69078   0.99476   1.000
    O271    O    0.25949   0.69078   0.99488   1.000
    O272    O    0.26025   0.19142   0.99528   1.000
    O273    O    0.76026   0.19144   0.99605   1.000
    O274    O    0.67010   0.93911   0.30112   1.000
loop_
    _geom_bond_atom_site_label_1
    _geom_bond_atom_site_label_2
    _geom_bond_distance
    _geom_bond_site_symmetry_2
    _ccdc_geom_bond_type
    C60    O128      0.61273      .   S
    C56    O128      0.61273      .   S
    C60    O129      0.87567      .   S
    C28    O129      0.87567      .   S
    C61    O130      0.61254      .   S
    C57    O130      0.61254      .   S
    C61    O131      0.87511      .   S
    C29    O131      0.87511      .   S
    C62    O132      0.61285      .   S
    C58    O132      0.61285      .   S
    C62    O133      0.87572      .   S
    C30    O133      0.87572      .   S
    C63    O134      0.61253      .   S
    C59    O134      0.61253      .   S
    C63    O135      0.87491      .   S
    C31    O135      0.87491      .   S
    C59    O136      0.67511  1_554   S
    C43    O136      0.67511      .   S
    C57    O137      0.67512  1_554   S
    C41    O137      0.67512      .   S
    C56    O138      0.67515      .   S
    C40    O138      0.67515  1_556   S
    C58    O139      0.67509      .   S
    C42    O139      0.67509  1_556   S
    C28    O140      0.77378      .   S
    C104   O140      0.77378      .   S
    C28    O141      0.76170  1_554   S
    C100   O141      0.76170      .   S
    C28    O142      0.75950  1_554   S
    C108   O142      0.75950      .   S
    C30    O143      0.77858      .   S
    C106   O143      0.77858      .   S
    C30    O144      0.76168  1_554   S
    C102   O144      0.76168      .   S
    C30    O145      0.75949  1_554   S
    C110   O145      0.75949      .   S
    C31    O146      0.77860      .   S
    C107   O146      0.77860      .   S
    C31    O147      0.76129  1_554   S
    C103   O147      0.76129      .   S
    C31    O148      0.75869  1_554   S
    C111   O148      0.75869      .   S
    C29    O149      0.77873      .   S
    C105   O149      0.77873      .   S
    C29    O150      0.76134  1_554   S
    C101   O150      0.76134      .   S
    C29    O151      0.76084  1_554   S
    C109   O151      0.76084      .   S
    C84    O152      0.75875      .   S
    C20    O152      0.75875  1_556   S
    C84    O153      0.93349      .   S
    C4     O153      0.93349  1_556   S
    C86    O154      0.75871      .   S
    C22    O154      0.75871  1_556   S
    C87    O155      0.75948      .   S
    C23    O155      0.75948  1_556   S
    C85    O156      0.75949      .   S
    C21    O156      0.75949  1_556   S
    C85    O157      0.93348      .   S
    C5     O157      0.93348      .   S
    C76    O158      0.76145      .   S
    C20    O158      0.76145  1_556   S
    C78    O159      0.76134      .   S
    C22    O159      0.76134  1_556   S
    C78    O160      0.93595      .   S
    C4     O160      0.93595  1_456   S
    C79    O161      0.76169      .   S
    C23    O161      0.76169  1_556   S
    C79    O162      0.93460      .   S
    C5     O162      0.93460  1_455   S
    C77    O163      0.76170      .   S
    C21    O163      0.76170  1_556   S
    C104   O164      0.88736      .   S
    C12    O164      0.88736      .   S
    C106   O165      0.88386      .   S
    C14    O165      0.88386      .   S
    C107   O166      0.88149      .   S
    C15    O166      0.88149      .   S
    C105   O167      0.88160      .   S
    C13    O167      0.88160      .   S
    C118   O168      0.88238      .   S
    C14    O168      0.88238      .   S
    C116   O169      0.88240      .   S
    C12    O169      0.88240      .   S
    C117   O170      0.88741      .   S
    C13    O170      0.88741      .   S
    C119   O171      0.93319      .   S
    C6     O171      0.93319  1_545   S
    C12    O172      0.88780      .   S
    C120   O172      0.88780      .   S
    C12    O173      0.88069      .   S
    C68    O173      0.88069      .   S
    C14    O174      0.88777      .   S
    C122   O174      0.88777      .   S
    C14    O175      0.88063      .   S
    C70    O175      0.88063      .   S
    C15    O176      0.87520      .   S
    C6     O176      0.87520  1_545   S
    C13    O177      0.88281      .   S
    C121   O177      0.88281      .   S
    C13    O178      0.88393      .   S
    C69    O178      0.88393      .   S
    C123   O179      0.39254      .   S
    C6     O179      0.39254  1_545   S
    C68    O180      0.77857      .   S
    C16    O180      0.77857      .   S
    C70    O181      0.77856      .   S
    C18    O181      0.77856      .   S
    C71    O182      0.77873      .   S
    C19    O182      0.77873      .   S
    C69    O183      0.77866      .   S
    C17    O183      0.77866      .   S
    C88    O184      0.93559      .   S
    C2     O184      0.93559  1_565   S
    C88    O185      0.76148      .   S
    C24    O185      0.76148      .   S
    C90    O186      0.93460      .   S
    C0     O186      0.93460  1_565   S
    C90    O187      0.76165      .   S
    C26    O187      0.76165      .   S
    C91    O188      0.93387      .   S
    C1     O188      0.93387  1_455   S
    C91    O189      0.76112      .   S
    C27    O189      0.76112      .   S
    C89    O190      0.93407      .   S
    C3     O190      0.93407      .   S
    C89    O191      0.76121      .   S
    C25    O191      0.76121      .   S
    C96    O192      0.93343      .   S
    C0     O192      0.93343  1_665   S
    C96    O193      0.75942      .   S
    C24    O193      0.75942      .   S
    C98    O194      0.93250      .   S
    C2     O194      0.93250  1_565   S
    C98    O195      0.75910      .   S
    C26    O195      0.75910      .   S
    C99    O196      0.93388      .   S
    C3     O196      0.93388      .   S
    C99    O197      0.75853      .   S
    C27    O197      0.75853      .   S
    C97    O198      0.93399      .   S
    C1     O198      0.93399      .   S
    C97    O199      0.75853      .   S
    C25    O199      0.75853      .   S
    C16    O200      0.86973      .   S
    C36    O200      0.86973      .   S
    C16    O201      0.75861      .   S
    C72    O201      0.75861      .   S
    C16    O202      0.76130      .   S
    C64    O202      0.76130      .   S
    C18    O203      0.86974      .   S
    C38    O203      0.86974      .   S
    C18    O204      0.75862      .   S
    C74    O204      0.75862      .   S
    C18    O205      0.76128      .   S
    C66    O205      0.76128      .   S
    C19    O206      0.86908      .   S
    C39    O206      0.86908      .   S
    C19    O207      0.75957      .   S
    C75    O207      0.75957      .   S
    C19    O208      0.76131      .   S
    C67    O208      0.76131      .   S
    C17    O209      0.86919      .   S
    C37    O209      0.86919      .   S
    C17    O210      0.75913      .   S
    C73    O210      0.75913      .   S
    C17    O211      0.76151      .   S
    C65    O211      0.76151      .   S
    C39    O212      0.61259      .   S
    C35    O212      0.61259      .   S
    C37    O213      0.61266      .   S
    C33    O213      0.61266      .   S
    C36    O214      0.61285      .   S
    C32    O214      0.61285      .   S
    C38    O215      0.61284      .   S
    C34    O215      0.61284      .   S
    C35    O216      0.67455      .   S
    C51    O216      0.67455      .   S
    C33    O217      0.67463      .   S
    C49    O217      0.67463      .   S
    C32    O218      0.67502      .   S
    C48    O218      0.67502      .   S
    C34    O219      0.67499      .   S
    C50    O219      0.67499      .   S
    C0     O220      0.93394      .   S
    C75    O220      0.93394      .   S
    C0     O221      0.93418  1_655   S
    C65    O221      0.93418      .   S
    C3     O222      0.93413      .   S
    C72    O222      0.93413      .   S
    C3     O223      0.93447      .   S
    C66    O223      0.93447      .   S
    C2     O224      0.93224      .   S
    C73    O224      0.93224      .   S
    C2     O225      0.93452      .   S
    C67    O225      0.93452      .   S
    C1     O226      0.93419  1_455   S
    C74    O226      0.93419      .   S
    C1     O227      0.93452      .   S
    C64    O227      0.93452      .   S
    C51    O228      0.61260      .   S
    C55    O228      0.61260      .   S
    C49    O229      0.61267      .   S
    C53    O229      0.61267      .   S
    C48    O230      0.61286      .   S
    C52    O230      0.61286      .   S
    C50    O231      0.61285      .   S
    C54    O231      0.61285      .   S
    C55    O232      0.86895      .   S
    C27    O232      0.86895      .   S
    C53    O233      0.86916      .   S
    C25    O233      0.86916      .   S
    C52    O234      0.86989      .   S
    C24    O234      0.86989      .   S
    C54    O235      0.86987      .   S
    C26    O235      0.86987      .   S
    C24    O236      0.77874      .   S
    C92    O236      0.77874      .   S
    C26    O237      0.77868      .   S
    C94    O237      0.77868      .   S
    C27    O238      0.77854      .   S
    C95    O238      0.77854      .   S
    C25    O239      0.77853      .   S
    C93    O239      0.77853      .   S
    C92    O240      0.88363      .   S
    C8     O240      0.88363      .   S
    C94    O241      0.88398      .   S
    C10    O241      0.88398      .   S
    C95    O242      0.88053      .   S
    C11    O242      0.88053      .   S
    C93    O243      0.88051      .   S
    C9     O243      0.88051      .   S
    C114   O244      0.88271      .   S
    C10    O244      0.88271      .   S
    C112   O245      0.88445      .   S
    C8     O245      0.88445      .   S
    C113   O246      0.88818      .   S
    C9     O246      0.88818      .   S
    C115   O247      0.88793      .   S
    C11    O247      0.88793      .   S
    C8     O248      0.88664      .   S
    C124   O248      0.88664      .   S
    C8     O249      0.88238      .   S
    C80    O249      0.88238      .   S
    C10    O250      0.88755      .   S
    C126   O250      0.88755      .   S
    C10    O251      0.88147      .   S
    C82    O251      0.88147      .   S
    C11    O252      0.88217      .   S
    C127   O252      0.88217      .   S
    C11    O253      0.88394      .   S
    C83    O253      0.88394      .   S
    C9     O254      0.88394      .   S
    C81    O254      0.88394      .   S
    C125   O255      0.40562      .   S
    C7     O255      0.40562      .   S
    C80    O256      0.77875      .   S
    C20    O256      0.77875      .   S
    C82    O257      0.77881      .   S
    C22    O257      0.77881      .   S
    C83    O258      0.77859      .   S
    C23    O258      0.77859      .   S
    C81    O259      0.77859      .   S
    C21    O259      0.77859      .   S
    C100   O260      0.93449      .   S
    C5     O260      0.93449  1_554   S
    C102   O261      0.99748      .   S
    C7     O261      0.99748      .   S
    C101   O262      0.93576      .   S
    C4     O262      0.93576  1_545   S
    C108   O263      1.02611      .   S
    C7     O263      1.02611      .   S
    C110   O264      0.93350      .   S
    C5     O264      0.93350  1_454   S
    C111   O265      0.93364      .   S
    C4     O265      0.93364  1_445   S
    C20    O266      0.87009      .   S
    C44    O266      0.87009      .   S
    C22    O267      0.86994      .   S
    C46    O267      0.86994      .   S
    C23    O268      0.87011      .   S
    C47    O268      0.87011      .   S
    C21    O269      0.87011      .   S
    C45    O269      0.87011      .   S
    C47    O270      0.61293      .   S
    C43    O270      0.61293      .   S
    C45    O271      0.61295      .   S
    C41    O271      0.61295      .   S
    C44    O272      0.61296      .   S
    C40    O272      0.61296      .   S
    C46    O273      0.61292      .   S
    C42    O273      0.61292      .   S
    C71    O274      0.88406      .   S
    C15    O274      0.88406      .   S
