# CIF file generated by openbabel 2.4.90, see http://openbabel.sf.net
data_I
_chemical_name_common ''
_cell_length_a 15.885
_cell_length_b 18.338
_cell_length_c 19.602
_cell_angle_alpha 92.926
_cell_angle_beta 114.074
_cell_angle_gamma 82.713
_space_group_name_H-M_alt 'P 1'
_space_group_name_Hall 'P 1'
loop_
    _symmetry_equiv_pos_as_xyz
    x,y,z
loop_
    _atom_site_label
    _atom_site_type_symbol
    _atom_site_fract_x
    _atom_site_fract_y
    _atom_site_fract_z
    _atom_site_occupancy
    Lv0     Lv   0.57404   0.99999   0.64859   1.000
    Lv1     Lv   0.42604   0.99996   0.35138   1.000
    Lv2     Lv   0.92604   0.99996   0.85136   1.000
    Lv3     Lv   0.42604   0.99996   0.85136   1.000
    Lv4     Lv   0.07404   0.49999   0.14860   1.000
    Lv5     Lv   0.57404   0.99999   0.14854   1.000
    Lv6     Lv   0.57404   0.49999   0.64859   1.000
    Lv7     Lv   0.57404   0.49999   0.14860   1.000
    Lv8     Lv   0.42604   0.49996   0.85136   1.000
    Lv9     Lv   0.42604   0.49996   0.35137   1.000
    Lv10    Lv   0.07404   0.49999   0.64858   1.000
    Lv11    Lv   0.07404   0.99999   0.64858   1.000
    Lv12    Lv   0.92604   0.49996   0.85136   1.000
    Lv13    Lv   0.07404   0.99999   0.14861   1.000
    Lv14    Lv   0.92604   0.49996   0.35138   1.000
    Lv15    Lv   0.92604   0.99996   0.35135   1.000
