# CIF file generated by openbabel 2.4.90, see http://openbabel.sf.net
data_I
_chemical_name_common ''
_cell_length_a 15.885
_cell_length_b 18.338
_cell_length_c 19.602
_cell_angle_alpha 92.926
_cell_angle_beta 114.074
_cell_angle_gamma 82.713
_space_group_name_H-M_alt 'P 1'
_space_group_name_Hall 'P 1'
loop_
    _symmetry_equiv_pos_as_xyz
    x,y,z
loop_
    _atom_site_label
    _atom_site_type_symbol
    _atom_site_fract_x
    _atom_site_fract_y
    _atom_site_fract_z
    _atom_site_occupancy
    Cd0     Cd   0.00005   0.24998   0.74998   1.000
    Cd1     Cd   0.00005   0.74996   0.25000   1.000
    Cd2     Cd   0.00005   0.74996   0.74998   1.000
    Cd3     Cd   0.50004   0.24998   0.25000   1.000
    Cd4     Cd   0.50004   0.24998   0.74998   1.000
    Cd5     Cd   0.50004   0.74996   0.25000   1.000
    Cd6     Cd   0.50004   0.74996   0.74998   1.000
    Cd7     Cd   0.25004   0.24997   0.25000   1.000
    Cd8     Cd   0.25004   0.24997   0.74998   1.000
    Cd9     Cd   0.25004   0.74996   0.25000   1.000
    Cd10    Cd   0.25005   0.74996   0.74998   1.000
    Cd11    Cd   0.75003   0.24998   0.24999   1.000
    Cd12    Cd   0.75003   0.24998   0.74998   1.000
    Cd13    Cd   0.75003   0.74996   0.24999   1.000
    Cd14    Cd   0.75004   0.74996   0.74998   1.000
    Cd15    Cd   0.25004   0.99998   0.00000   1.000
    Cd16    Cd   0.25004   0.99998   0.49999   1.000
    Cd17    Cd   0.25005   0.49996   0.00000   1.000
    Cd18    Cd   0.25004   0.49997   0.49999   1.000
    Cd19    Cd   0.75004   0.99998   0.00000   1.000
    Cd20    Cd   0.75003   0.99998   0.49999   1.000
    Cd21    Cd   0.75004   0.49997   0.00000   1.000
    Cd22    Cd   0.75004   0.49997   0.49999   1.000
    Cd23    Cd   0.00004   0.24998   0.25000   1.000
    C24     C    0.09906   0.39461   0.37126   1.000
    C25     C    0.09906   0.39461   0.87125   1.000
    C26     C    0.09906   0.89460   0.37126   1.000
    N27     N    0.25975   0.12039   0.12292   1.000
    N28     N    0.25975   0.12040   0.62291   1.000
    N29     N    0.25975   0.62038   0.12292   1.000
    N30     N    0.25975   0.62038   0.62291   1.000
    N31     N    0.75974   0.12040   0.12292   1.000
    C32     C    0.40102   0.10534   0.12873   1.000
    C33     C    0.40103   0.10534   0.62872   1.000
    C34     C    0.40102   0.60533   0.12873   1.000
    C35     C    0.40103   0.60533   0.62872   1.000
    C36     C    0.90101   0.10534   0.12873   1.000
    C37     C    0.90101   0.10534   0.62871   1.000
    C38     C    0.90101   0.60533   0.12873   1.000
    C39     C    0.90102   0.60533   0.62871   1.000
    C40     C    0.22702   0.39475   0.12859   1.000
    C41     C    0.22702   0.39475   0.62858   1.000
    C42     C    0.22702   0.89474   0.12859   1.000
    C43     C    0.22702   0.89474   0.62858   1.000
    C44     C    0.72701   0.39475   0.12859   1.000
    C45     C    0.72702   0.39475   0.62858   1.000
    C46     C    0.72701   0.89474   0.12859   1.000
    C47     C    0.72702   0.89474   0.62858   1.000
    C48     C    0.09907   0.89460   0.87125   1.000
    C49     C    0.59905   0.39461   0.37126   1.000
    C50     C    0.59905   0.39461   0.87125   1.000
    C51     C    0.59905   0.89460   0.37126   1.000
    C52     C    0.59906   0.89460   0.87125   1.000
    C53     C    0.27306   0.10520   0.37140   1.000
    C54     C    0.27306   0.10520   0.87139   1.000
    C55     C    0.27306   0.60519   0.37140   1.000
    C56     C    0.27307   0.60519   0.87139   1.000
    C57     C    0.77306   0.10521   0.37140   1.000
    C58     C    0.77306   0.10520   0.87138   1.000
    C59     C    0.77306   0.60519   0.37140   1.000
    C60     C    0.77306   0.60519   0.87138   1.000
    N61     N    0.30977   0.16461   0.17436   1.000
    N62     N    0.30977   0.16461   0.67435   1.000
    N63     N    0.30977   0.66460   0.17436   1.000
    N64     N    0.30977   0.66460   0.67435   1.000
    N65     N    0.80976   0.16462   0.17436   1.000
    N66     N    0.80976   0.16462   0.67435   1.000
    N67     N    0.80976   0.66460   0.17436   1.000
    N68     N    0.80976   0.66460   0.67435   1.000
    N69     N    0.75974   0.12040   0.62290   1.000
    N70     N    0.75974   0.62039   0.12292   1.000
    N71     N    0.75974   0.62039   0.62290   1.000
    N72     N    0.31604   0.08272   0.09342   1.000
    N73     N    0.31604   0.08272   0.59341   1.000
    N74     N    0.31604   0.58270   0.09342   1.000
    N75     N    0.31604   0.58270   0.59341   1.000
    N76     N    0.81603   0.08272   0.09342   1.000
    N77     N    0.81603   0.08272   0.59340   1.000
    N78     N    0.81603   0.58271   0.09340   1.000
    N79     N    0.81603   0.58271   0.59340   1.000
    N80     N    0.39842   0.15670   0.17946   1.000
    N81     N    0.39842   0.15670   0.67940   1.000
    N82     N    0.39842   0.65668   0.17946   1.000
    N83     N    0.39842   0.65668   0.67940   1.000
    N84     N    0.89841   0.15670   0.17940   1.000
    N85     N    0.89841   0.15670   0.67944   1.000
    N86     N    0.89841   0.65669   0.17946   1.000
    N87     N    0.89841   0.65669   0.67944   1.000
    N88     N    0.36420   0.33533   0.17438   1.000
    N89     N    0.36420   0.33533   0.67436   1.000
    N90     N    0.36420   0.83531   0.17438   1.000
    N91     N    0.36420   0.83531   0.67436   1.000
    N92     N    0.86419   0.33533   0.17430   1.000
    N93     N    0.86419   0.33533   0.67436   1.000
    N94     N    0.86419   0.83531   0.17437   1.000
    N95     N    0.86420   0.83531   0.67436   1.000
    N96     N    0.36248   0.37953   0.12290   1.000
    N97     N    0.36249   0.37953   0.62288   1.000
    N98     N    0.36249   0.87952   0.12290   1.000
    N99     N    0.36249   0.87952   0.62288   1.000
    N100    N    0.86248   0.37953   0.12289   1.000
    N101    N    0.86248   0.37954   0.62288   1.000
    N102    N    0.86248   0.87952   0.12200   1.000
    N103    N    0.86249   0.87952   0.62288   1.000
    N104    N    0.27653   0.41732   0.09331   1.000
    N105    N    0.27654   0.41732   0.59329   1.000
    N106    N    0.27653   0.91731   0.09331   1.000
    N107    N    0.27654   0.91731   0.59329   1.000
    N108    N    0.77653   0.41732   0.09330   1.000
    N109    N    0.77653   0.41732   0.59329   1.000
    N110    N    0.77653   0.91731   0.09330   1.000
    N111    N    0.77653   0.91731   0.59329   1.000
    N112    N    0.28065   0.34336   0.17941   1.000
    N113    N    0.28065   0.34336   0.67940   1.000
    N114    N    0.28065   0.84335   0.17940   1.000
    N115    N    0.28065   0.84335   0.67940   1.000
    N116    N    0.78064   0.34337   0.17941   1.000
    N117    N    0.78065   0.34336   0.67940   1.000
    N118    N    0.78065   0.84335   0.17941   1.000
    N119    N    0.78065   0.84335   0.67940   1.000
    N120    N    0.19031   0.33534   0.32563   1.000
    N121    N    0.19032   0.33534   0.82562   1.000
    N122    N    0.19031   0.83532   0.32563   1.000
    N123    N    0.19032   0.83532   0.82562   1.000
    N124    N    0.69030   0.33534   0.32563   1.000
    N125    N    0.69031   0.33534   0.82560   1.000
    N126    N    0.69030   0.83533   0.32563   1.000
    N127    N    0.69031   0.83533   0.82561   1.000
    N128    N    0.24033   0.37956   0.37707   1.000
    N129    N    0.24034   0.37956   0.87706   1.000
    N130    N    0.24034   0.87954   0.37707   1.000
    N131    N    0.24034   0.87954   0.87706   1.000
    N132    N    0.74032   0.37956   0.37707   1.000
    N133    N    0.74033   0.37956   0.87705   1.000
    N134    N    0.74032   0.87955   0.37707   1.000
    N135    N    0.74033   0.87955   0.87705   1.000
    N136    N    0.18405   0.41723   0.40657   1.000
    N137    N    0.18405   0.41723   0.90656   1.000
    N138    N    0.18405   0.91722   0.40657   1.000
    N139    N    0.18405   0.91722   0.90656   1.000
    N140    N    0.68403   0.41724   0.40657   1.000
    N141    N    0.68404   0.41724   0.90656   1.000
    N142    N    0.68404   0.91722   0.40657   1.000
    N143    N    0.68404   0.91723   0.90650   1.000
    N144    N    0.10166   0.34325   0.32054   1.000
    N145    N    0.10167   0.34325   0.82052   1.000
    N146    N    0.10167   0.84324   0.32050   1.000
    N147    N    0.10167   0.84324   0.82052   1.000
    N148    N    0.60165   0.34325   0.32053   1.000
    N149    N    0.60166   0.34325   0.82052   1.000
    N150    N    0.60166   0.84324   0.32053   1.000
    N151    N    0.60166   0.84324   0.82052   1.000
    N152    N    0.13588   0.16462   0.32562   1.000
    N153    N    0.13588   0.16462   0.82561   1.000
    N154    N    0.13588   0.66461   0.32562   1.000
    N155    N    0.13589   0.66461   0.82561   1.000
    N156    N    0.63587   0.16463   0.32562   1.000
    N157    N    0.63588   0.16463   0.82560   1.000
    N158    N    0.63588   0.66461   0.32562   1.000
    N159    N    0.63588   0.66461   0.82560   1.000
    N160    N    0.13759   0.12042   0.37710   1.000
    N161    N    0.13760   0.12042   0.87709   1.000
    N162    N    0.13760   0.62040   0.37710   1.000
    N163    N    0.13760   0.62041   0.87709   1.000
    N164    N    0.63759   0.12042   0.37710   1.000
    N165    N    0.63760   0.12042   0.87709   1.000
    N166    N    0.63759   0.62040   0.37710   1.000
    N167    N    0.63760   0.62041   0.87709   1.000
    N168    N    0.22355   0.08263   0.40669   1.000
    N169    N    0.22355   0.08263   0.90668   1.000
    N170    N    0.22355   0.58262   0.40669   1.000
    N171    N    0.22355   0.58262   0.90668   1.000
    N172    N    0.72354   0.08263   0.40669   1.000
    N173    N    0.72355   0.08263   0.90660   1.000
    N174    N    0.72355   0.58262   0.40669   1.000
    N175    N    0.72355   0.58262   0.90660   1.000
    N176    N    0.21943   0.15659   0.32058   1.000
    N177    N    0.21943   0.15659   0.82057   1.000
    N178    N    0.21943   0.65657   0.32058   1.000
    N179    N    0.21943   0.65657   0.82057   1.000
    N180    N    0.71942   0.15659   0.32058   1.000
    N181    N    0.71942   0.15659   0.82056   1.000
    N182    N    0.71942   0.65658   0.32058   1.000
    N183    N    0.71943   0.65658   0.82050   1.000
    Cl184   Cl   0.07739   0.25007   0.15529   1.000
    Cl185   Cl   0.07739   0.25007   0.65520   1.000
    Cl186   Cl   0.07739   0.75006   0.15529   1.000
    Cl187   Cl   0.07739   0.75006   0.65527   1.000
    Cl188   Cl   0.57738   0.25007   0.15529   1.000
    Cl189   Cl   0.57738   0.25007   0.65527   1.000
    Cl190   Cl   0.57738   0.75006   0.15529   1.000
    Cl191   Cl   0.57738   0.75006   0.65527   1.000
    Cl192   Cl   0.42269   0.24988   0.34471   1.000
    Cl193   Cl   0.42270   0.24988   0.84469   1.000
    Cl194   Cl   0.42269   0.74987   0.34471   1.000
    Cl195   Cl   0.42270   0.74987   0.84469   1.000
    Cl196   Cl   0.92268   0.24988   0.34470   1.000
    Cl197   Cl   0.92269   0.24988   0.84469   1.000
    Cl198   Cl   0.92268   0.74987   0.34470   1.000
    Cl199   Cl   0.92269   0.74987   0.84469   1.000
    Ts200   Ts   0.07079   0.40550   0.37468   1.000
    Ts201   Ts   0.07079   0.40550   0.87467   1.000
    Ts202   Ts   0.07079   0.90549   0.37468   1.000
    Ts203   Ts   0.42929   0.09445   0.12529   1.000
    Ts204   Ts   0.42930   0.09445   0.62530   1.000
    Ts205   Ts   0.42929   0.59444   0.12529   1.000
    Ts206   Ts   0.42930   0.59444   0.62530   1.000
    Ts207   Ts   0.92928   0.09445   0.12531   1.000
    Ts208   Ts   0.92929   0.09445   0.62529   1.000
    Ts209   Ts   0.92928   0.59444   0.12531   1.000
    Ts210   Ts   0.92929   0.59444   0.62529   1.000
    Ts211   Ts   0.19530   0.40567   0.12516   1.000
    Ts212   Ts   0.19530   0.40567   0.62512   1.000
    Ts213   Ts   0.19530   0.90565   0.12516   1.000
    Ts214   Ts   0.19531   0.90565   0.62512   1.000
    Ts215   Ts   0.69530   0.40567   0.12516   1.000
    Ts216   Ts   0.69530   0.40567   0.62514   1.000
    Ts217   Ts   0.69530   0.90566   0.12516   1.000
    Ts218   Ts   0.69530   0.90566   0.62514   1.000
    Ts219   Ts   0.07079   0.90549   0.87467   1.000
    Ts220   Ts   0.57078   0.40550   0.37467   1.000
    Ts221   Ts   0.57078   0.40550   0.87467   1.000
    Ts222   Ts   0.57078   0.90549   0.37467   1.000
    Ts223   Ts   0.57078   0.90549   0.87467   1.000
    Ts224   Ts   0.30478   0.09429   0.37483   1.000
    Ts225   Ts   0.30478   0.09428   0.87482   1.000
    Ts226   Ts   0.30478   0.59427   0.37483   1.000
    Ts227   Ts   0.30478   0.59427   0.87482   1.000
    Ts228   Ts   0.80477   0.09429   0.37483   1.000
    Ts229   Ts   0.80478   0.09429   0.87482   1.000
    Ts230   Ts   0.80477   0.59428   0.37483   1.000
    Ts231   Ts   0.80478   0.59427   0.87482   1.000
loop_
    _geom_bond_atom_site_label_1
    _geom_bond_atom_site_label_2
    _geom_bond_distance
    _geom_bond_site_symmetry_2
    _ccdc_geom_bond_type
    N110   N102      1.35424      .   S
    N110   C46       1.35066      .   S
    N110   Cd19      2.30510      .   S
    N108   N100      1.35488      .   S
    N108   C44       1.35066      .   S
    N108   Cd21      2.30477      .   S
    N104   N96       1.35488      .   S
    N104   C40       1.35051      .   S
    N104   Cd17      2.30492      .   S
    N106   N98       1.35488      .   S
    N106   C42       1.35051      .   S
    N106   Cd15      2.30523      .   S
    N78    N70       1.35510      .   S
    N78    C38       1.35065      .   S
    N78    Cd21      2.30371      .   S
    N76    N31       1.35485      .   S
    N76    C36       1.35061      .   S
    N76    Cd19      2.30392  1_545   S
    N74    N29       1.35484      .   S
    N74    C34       1.35061      .   S
    N74    Cd17      2.30393      .   S
    N72    N27       1.35484      .   S
    N72    C32       1.35061      .   S
    N72    Cd15      2.30393  1_545   S
    N102   N94       1.32980      .   S
    N100   N92       1.31489      .   S
    N98    N90       1.31599      .   S
    N96    N88       1.31599      .   S
    N27    N61       1.31602      .   S
    N29    N63       1.31602      .   S
    N31    N65       1.31600      .   S
    N70    N67       1.31601      .   S
    C46    N118      1.34383      .   S
    C44    N116      1.34384      .   S
    C42    N114      1.34373      .   S
    C40    N112      1.34383      .   S
    C32    N80       1.34370      .   S
    C38    N86       1.34370      .   S
    C36    N84       1.34287      .   S
    C34    N82       1.34370      .   S
    Cl190  Cd13      2.61023      .   S
    Cl188  Cd11      2.61023      .   S
    Cl186  Cd9       2.61029      .   S
    Cl184  Cd7       2.61028      .   S
    N92    N116      1.36027      .   S
    N92    Cd23      2.46506  1_655   S
    N67    N86       1.35974      .   S
    N67    Cd13      2.46618      .   S
    N65    N84       1.36012      .   S
    N65    Cd11      2.46620      .   S
    N63    N82       1.35972      .   S
    N63    Cd9       2.46634      .   S
    N61    N80       1.35970      .   S
    N61    Cd7       2.46635      .   S
    N94    N118      1.35964      .   S
    N94    Cd1       2.46467  1_655   S
    N90    N114      1.35945      .   S
    N90    Cd5       2.46449      .   S
    N88    N112      1.35954      .   S
    N88    Cd3       2.46449      .   S
    N84    Cd23      2.46650  1_655   S
    N114   Cd9       2.46715      .   S
    N116   Cd11      2.46690      .   S
    N118   Cd13      2.46691      .   S
    N112   Cd7       2.46700      .   S
    N80    Cd3       2.46609      .   S
    N86    Cd1       2.46621  1_655   S
    N82    Cd5       2.46609      .   S
    Cd11   N180      2.46697      .   S
    Cd11   N124      2.46636      .   S
    Cd11   Cl196     2.61028      .   S
    Cd13   N182      2.46697      .   S
    Cd13   N126      2.46635      .   S
    Cd13   Cl198     2.61028      .   S
    Cd23   N144      2.46607      .   S
    Cd23   N152      2.46447      .   S
    Cd1    N146      2.46590      .   S
    Cd1    N154      2.46446      .   S
    Cd3    N148      2.46605      .   S
    Cd3    N156      2.46447      .   S
    Cd5    N150      2.46605      .   S
    Cd5    N158      2.46447      .   S
    Cd7    N176      2.46687      .   S
    Cd7    N120      2.46621      .   S
    Cd7    Cl192     2.61028      .   S
    Cd9    N178      2.46687      .   S
    Cd9    N122      2.46621      .   S
    Cd9    Cl194     2.61029      .   S
    N146   N122      1.35950      .   S
    N146   C26       1.34412      .   S
    N148   N124      1.35970      .   S
    N148   C49       1.34371      .   S
    N150   N126      1.35972      .   S
    N150   C51       1.34370      .   S
    N144   N120      1.35977      .   S
    N144   C24       1.34358      .   S
    N180   N156      1.35962      .   S
    N180   C57       1.34384      .   S
    N178   N154      1.35962      .   S
    N178   C55       1.34384      .   S
    N182   N158      1.35962      .   S
    N182   C59       1.34386      .   S
    N176   N152      1.35964      .   S
    N176   C53       1.34384      .   S
    N154   N162      1.31596      .   S
    N152   N160      1.31595      .   S
    N158   N166      1.31596      .   S
    N156   N164      1.31595      .   S
    N124   N132      1.31604      .   S
    N120   N128      1.31603      .   S
    N122   N130      1.31604      .   S
    N126   N134      1.31605      .   S
    C24    N136      1.35061      .   S
    C26    N138      1.35061      .   S
    C49    N140      1.35061      .   S
    C51    N142      1.35061      .   S
    C55    N170      1.35062      .   S
    C53    N168      1.35062      .   S
    C59    N174      1.35061      .   S
    C57    N172      1.35062      .   S
    N130   N138      1.35483      .   S
    N134   N142      1.35482      .   S
    N132   N140      1.35482      .   S
    N128   N136      1.35484      .   S
    N160   N168      1.35487      .   S
    N166   N174      1.35488      .   S
    N164   N172      1.35489      .   S
    N162   N170      1.35487      .   S
    N138   Cd16      2.30421      .   S
    N140   Cd22      2.30389      .   S
    N142   Cd20      2.30420      .   S
    N136   Cd18      2.30388      .   S
    N172   Cd20      2.30483  1_545   S
    N170   Cd18      2.30483      .   S
    N168   Cd16      2.30483  1_545   S
    N174   Cd22      2.30484      .   S
    Cd16   N107      2.30511      .   S
    Cd16   N73       2.30391  1_565   S
    Cd18   N105      2.30480      .   S
    Cd18   N75       2.30392      .   S
    Cd22   N109      2.30480      .   S
    Cd22   N79       2.30381      .   S
    Cd20   N111      2.30511      .   S
    Cd20   N77       2.30381  1_565   S
    N107   N99       1.35488      .   S
    N107   C43       1.35066      .   S
    N109   N101      1.35488      .   S
    N109   C45       1.35067      .   S
    N105   N97       1.35488      .   S
    N105   C41       1.35067      .   S
    N111   N103      1.35487      .   S
    N111   C47       1.35067      .   S
    N77    N69       1.35483      .   S
    N77    C37       1.35060      .   S
    N79    N71       1.35485      .   S
    N79    C39       1.35060      .   S
    N73    N28       1.35484      .   S
    N73    C33       1.35061      .   S
    N75    N30       1.35484      .   S
    N75    C35       1.35061      .   S
    N97    N89       1.31599      .   S
    N101   N93       1.31600      .   S
    N103   N95       1.31599      .   S
    N99    N91       1.31599      .   S
    N71    N68       1.31610      .   S
    N69    N66       1.31611      .   S
    N30    N64       1.31601      .   S
    N28    N62       1.31602      .   S
    C47    N119      1.34384      .   S
    C45    N117      1.34385      .   S
    C41    N113      1.34384      .   S
    C43    N115      1.34385      .   S
    C39    N87       1.34370      .   S
    C37    N85       1.34368      .   S
    C35    N83       1.34299      .   S
    C33    N81       1.34299      .   S
    Cl185  Cd8       2.61068      .   S
    Cl187  Cd10      2.61028      .   S
    Cl189  Cd12      2.61029      .   S
    Cl191  Cd14      2.61028      .   S
    N68    N87       1.35979      .   S
    N68    Cd14      2.46620      .   S
    N64    N83       1.36006      .   S
    N64    Cd10      2.46621      .   S
    N66    N85       1.35980      .   S
    N66    Cd12      2.46619      .   S
    N62    N81       1.36004      .   S
    N62    Cd8       2.46621      .   S
    N95    N119      1.35965      .   S
    N95    Cd2       2.46462  1_655   S
    N93    N117      1.35965      .   S
    N93    Cd0       2.46462  1_655   S
    N89    N113      1.35965      .   S
    N89    Cd4       2.46449      .   S
    N91    N115      1.35965      .   S
    N91    Cd6       2.46449      .   S
    N113   Cd8       2.46684      .   S
    N83    Cd6       2.46628      .   S
    N81    Cd4       2.46628      .   S
    N115   Cd10      2.46685      .   S
    N117   Cd12      2.46685      .   S
    N119   Cd14      2.46687      .   S
    N85    Cd0       2.46622  1_655   S
    N87    Cd2       2.46620  1_655   S
    Cd0    N145      2.46609      .   S
    Cd0    N153      2.46452      .   S
    Cd2    N147      2.46610      .   S
    Cd2    N155      2.46451      .   S
    Cd4    N149      2.46611      .   S
    Cd4    N157      2.46448      .   S
    Cd6    N151      2.46610      .   S
    Cd6    N159      2.46448      .   S
    Cd8    N177      2.46701      .   S
    Cd8    N121      2.46635      .   S
    Cd8    Cl193     2.61028      .   S
    Cd14   N183      2.46606      .   S
    Cd14   N127      2.46621      .   S
    Cd14   Cl199     2.61028      .   S
    Cd12   N181      2.46688      .   S
    Cd12   N125      2.46607      .   S
    Cd12   Cl197     2.61027      .   S
    Cd10   N179      2.46699      .   S
    Cd10   N123      2.46636      .   S
    Cd10   Cl195     2.61029      .   S
    N183   N159      1.36017      .   S
    N183   C60       1.34446      .   S
    N151   N127      1.35977      .   S
    N151   C52       1.34371      .   S
    N145   N121      1.35972      .   S
    N145   C25       1.34370      .   S
    N149   N125      1.35984      .   S
    N149   C50       1.34370      .   S
    N147   N123      1.35970      .   S
    N147   C48       1.34371      .   S
    N181   N157      1.35960      .   S
    N181   C58       1.34384      .   S
    N179   N155      1.35964      .   S
    N179   C56       1.34385      .   S
    N177   N153      1.35962      .   S
    N177   C54       1.34384      .   S
    N157   N165      1.31611      .   S
    N159   N167      1.31609      .   S
    N125   N133      1.31615      .   S
    N127   N135      1.31604      .   S
    N155   N163      1.31595      .   S
    N153   N161      1.31593      .   S
    N123   N131      1.31603      .   S
    N121   N129      1.31604      .   S
    C50    N141      1.35062      .   S
    C48    N139      1.35061      .   S
    C52    N143      1.35051      .   S
    C25    N137      1.35062      .   S
    C60    N175      1.34955      .   S
    C58    N173      1.34956      .   S
    C56    N171      1.35061      .   S
    C54    N169      1.35061      .   S
    N133   N141      1.35497      .   S
    N135   N143      1.35419      .   S
    N131   N139      1.35485      .   S
    N129   N137      1.35484      .   S
    N161   N169      1.35487      .   S
    N163   N171      1.35488      .   S
    N165   N173      1.35481      .   S
    N167   N175      1.35482      .   S
    N143   Cd19      2.30505  1_556   S
    N141   Cd21      2.30405  1_556   S
    N139   Cd15      2.30437  1_556   S
    N137   Cd17      2.30406  1_556   S
    N175   Cd21      2.30635  1_556   S
    N173   Cd19      2.30635  1_546   S
    N169   Cd15      2.30518  1_546   S
    N171   Cd17      2.30518  1_556   S
    C24    Ts200     0.49654      .   S
    C25    Ts201     0.49651      .   S
    C26    Ts202     0.49654      .   S
    C32    Ts203     0.49672      .   S
    C33    Ts204     0.49653      .   S
    C34    Ts205     0.49672      .   S
    C35    Ts206     0.49653      .   S
    C36    Ts207     0.49653      .   S
    C37    Ts208     0.49650      .   S
    C38    Ts209     0.49654      .   S
    C39    Ts210     0.49650      .   S
    C40    Ts211     0.49655      .   S
    C41    Ts212     0.49642      .   S
    C42    Ts213     0.49655      .   S
    C43    Ts214     0.49642      .   S
    C44    Ts215     0.49655      .   S
    C45    Ts216     0.49653      .   S
    C46    Ts217     0.49655      .   S
    C47    Ts218     0.49653      .   S
    C48    Ts219     0.49651      .   S
    C49    Ts220     0.49644      .   S
    C50    Ts221     0.49651      .   S
    C51    Ts222     0.49644      .   S
    C52    Ts223     0.49651      .   S
    C53    Ts224     0.49655      .   S
    C54    Ts225     0.49654      .   S
    C55    Ts226     0.49654      .   S
    C56    Ts227     0.49654      .   S
    C57    Ts228     0.49655      .   S
    C58    Ts229     0.49652      .   S
    C59    Ts230     0.49654      .   S
    C60    Ts231     0.49653      .   S
