# CIF file generated by openbabel 2.4.90, see http://openbabel.sf.net
data_I
_chemical_name_common ''
_cell_length_a 15.885
_cell_length_b 18.338
_cell_length_c 19.602
_cell_angle_alpha 92.926
_cell_angle_beta 114.074
_cell_angle_gamma 82.713
_space_group_name_H-M_alt 'P 1'
_space_group_name_Hall 'P 1'
loop_
    _symmetry_equiv_pos_as_xyz
    x,y,z
loop_
    _atom_site_label
    _atom_site_type_symbol
    _atom_site_fract_x
    _atom_site_fract_y
    _atom_site_fract_z
    _atom_site_occupancy
    Zr0     Zr   0.00004   0.24998   0.25000   1.000
    Zr1     Zr   0.00005   0.24998   0.74998   1.000
    Zr2     Zr   0.00005   0.74996   0.25000   1.000
    Zr3     Zr   0.00005   0.74996   0.74998   1.000
    Zr4     Zr   0.50004   0.24998   0.25000   1.000
    Zr5     Zr   0.50004   0.24998   0.74998   1.000
    Zr6     Zr   0.50004   0.74996   0.25000   1.000
    Zr7     Zr   0.50004   0.74996   0.74998   1.000
    Zr8     Zr   0.25004   0.24997   0.25000   1.000
    Zr9     Zr   0.25004   0.24997   0.74998   1.000
    Zr10    Zr   0.25004   0.74996   0.25000   1.000
    Zr11    Zr   0.25005   0.74996   0.74998   1.000
    Zr12    Zr   0.75003   0.24998   0.24999   1.000
    Zr13    Zr   0.75003   0.24998   0.74998   1.000
    Zr14    Zr   0.75003   0.74996   0.24999   1.000
    Zr15    Zr   0.75004   0.74996   0.74998   1.000
    Zr16    Zr   0.25004   0.99998   0.00000   1.000
    Zr17    Zr   0.25004   0.99998   0.49999   1.000
    Zr18    Zr   0.25005   0.49996   0.00000   1.000
    Zr19    Zr   0.25004   0.49997   0.49999   1.000
    Zr20    Zr   0.75004   0.99998   0.00000   1.000
    Zr21    Zr   0.75003   0.99998   0.49999   1.000
    Zr22    Zr   0.75004   0.49997   0.00000   1.000
    Zr23    Zr   0.75004   0.49997   0.49999   1.000
    Zr24    Zr   0.07739   0.25007   0.15529   1.000
    Zr25    Zr   0.07739   0.25007   0.65520   1.000
    Zr26    Zr   0.07739   0.75006   0.15529   1.000
    Zr27    Zr   0.07739   0.75006   0.65527   1.000
    Zr28    Zr   0.57738   0.25007   0.15529   1.000
    Zr29    Zr   0.57738   0.25007   0.65527   1.000
    Zr30    Zr   0.57738   0.75006   0.15529   1.000
    Zr31    Zr   0.57738   0.75006   0.65527   1.000
    Zr32    Zr   0.42269   0.24988   0.34471   1.000
    Zr33    Zr   0.42270   0.24988   0.84469   1.000
    Zr34    Zr   0.42269   0.74987   0.34471   1.000
    Zr35    Zr   0.42270   0.74987   0.84469   1.000
    Zr36    Zr   0.92268   0.24988   0.34470   1.000
    Zr37    Zr   0.92269   0.24988   0.84469   1.000
    Zr38    Zr   0.92268   0.74987   0.34470   1.000
    Zr39    Zr   0.92269   0.74987   0.84469   1.000
    O40     O    0.66371   0.75001   0.20264   1.000
    O41     O    0.66370   0.25003   0.20264   1.000
    O42     O    0.16372   0.75001   0.20264   1.000
    O43     O    0.16371   0.25002   0.20264   1.000
    O44     O    0.83636   0.24993   0.29734   1.000
    O45     O    0.83636   0.74992   0.29734   1.000
    O46     O    0.33637   0.24993   0.29735   1.000
    O47     O    0.33637   0.74991   0.29735   1.000
    O48     O    0.16372   0.25002   0.70259   1.000
    O49     O    0.16372   0.75001   0.70262   1.000
    O50     O    0.66371   0.25003   0.70262   1.000
    O51     O    0.66371   0.75001   0.70262   1.000
    O52     O    0.33637   0.24993   0.79733   1.000
    O53     O    0.83636   0.74992   0.79733   1.000
    O54     O    0.83636   0.24993   0.79733   1.000
    O55     O    0.33637   0.74991   0.79733   1.000
    N56     N    0.57404   0.99999   0.64859   1.000
    N57     N    0.42604   0.99996   0.35138   1.000
    N58     N    0.92604   0.99996   0.85136   1.000
    N59     N    0.42604   0.99996   0.85136   1.000
    N60     N    0.07404   0.49999   0.14860   1.000
    N61     N    0.57404   0.99999   0.14854   1.000
    N62     N    0.57404   0.49999   0.64859   1.000
    N63     N    0.57404   0.49999   0.14860   1.000
    N64     N    0.42604   0.49996   0.85136   1.000
    N65     N    0.42604   0.49996   0.35137   1.000
    N66     N    0.07404   0.49999   0.64858   1.000
    N67     N    0.07404   0.99999   0.64858   1.000
    N68     N    0.92604   0.49996   0.85136   1.000
    N69     N    0.07404   0.99999   0.14861   1.000
    N70     N    0.92604   0.49996   0.35138   1.000
    N71     N    0.92604   0.99996   0.35135   1.000
    C72     C    0.16309   0.87398   0.36021   1.000
    O73     O    0.19007   0.91629   0.40674   1.000
    O74     O    0.07722   0.91472   0.36204   1.000
    O75     O    0.10697   0.83529   0.32273   1.000
    O76     O    0.19163   0.83331   0.32401   1.000
    C77     C    0.30218   0.37406   0.13972   1.000
    O78     O    0.28273   0.41635   0.09319   1.000
    O79     O    0.28376   0.33536   0.17721   1.000
    O80     O    0.36715   0.33336   0.17595   1.000
    O81     O    0.21446   0.41481   0.13787   1.000
    C82     C    0.80217   0.87405   0.13953   1.000
    O83     O    0.71446   0.91480   0.13776   1.000
    O84     O    0.86715   0.83334   0.17586   1.000
    O85     O    0.78273   0.91635   0.09309   1.000
    O86     O    0.78376   0.83535   0.17712   1.000
    C87     C    0.19791   0.62588   0.86027   1.000
    O88     O    0.28562   0.58513   0.86211   1.000
    O89     O    0.21735   0.58359   0.90680   1.000
    O90     O    0.21632   0.66457   0.82277   1.000
    O91     O    0.13294   0.66658   0.82403   1.000
    C92     C    0.19791   0.12589   0.86027   1.000
    O93     O    0.13294   0.16660   0.82403   1.000
    O94     O    0.28562   0.08514   0.86211   1.000
    O95     O    0.21735   0.08360   0.90680   1.000
    O96     O    0.21632   0.16459   0.82277   1.000
    C97     C    0.69790   0.12589   0.86025   1.000
    O98     O    0.63293   0.16660   0.82402   1.000
    O99     O    0.71735   0.08360   0.90677   1.000
    O100    O    0.71632   0.16459   0.82276   1.000
    O101    O    0.78562   0.08514   0.86210   1.000
    C102    C    0.69790   0.62588   0.86023   1.000
    O103    O    0.63293   0.66658   0.82401   1.000
    O104    O    0.71735   0.58359   0.90677   1.000
    O105    O    0.78562   0.58513   0.86209   1.000
    O106    O    0.71632   0.66458   0.82274   1.000
    C107    C    0.66308   0.37400   0.86020   1.000
    O108    O    0.60696   0.33531   0.82272   1.000
    O109    O    0.57721   0.41473   0.86203   1.000
    O110    O    0.69162   0.33333   0.82399   1.000
    O111    O    0.69006   0.41630   0.90674   1.000
    C112    C    0.66308   0.87399   0.86019   1.000
    O113    O    0.57721   0.91472   0.86203   1.000
    O114    O    0.69163   0.83332   0.82399   1.000
    O115    O    0.60697   0.83530   0.82272   1.000
    O116    O    0.69006   0.91630   0.90672   1.000
    C117    C    0.30218   0.87405   0.63970   1.000
    O118    O    0.21446   0.91480   0.63784   1.000
    O119    O    0.28274   0.91635   0.59317   1.000
    O120    O    0.36715   0.83334   0.67594   1.000
    O121    O    0.28377   0.83535   0.67720   1.000
    C122    C    0.83699   0.62594   0.63976   1.000
    O123    O    0.81001   0.58364   0.59323   1.000
    O124    O    0.80845   0.66661   0.67596   1.000
    O125    O    0.89311   0.66463   0.67723   1.000
    O126    O    0.92286   0.58522   0.63792   1.000
    C127    C    0.83699   0.12596   0.63976   1.000
    O128    O    0.81001   0.08365   0.59323   1.000
    O129    O    0.89311   0.16465   0.67723   1.000
    O130    O    0.80845   0.16663   0.67596   1.000
    O131    O    0.92286   0.08523   0.63792   1.000
    C132    C    0.33700   0.62594   0.63976   1.000
    O133    O    0.39312   0.66463   0.67722   1.000
    O134    O    0.31002   0.58364   0.59323   1.000
    O135    O    0.30846   0.66661   0.67596   1.000
    O136    O    0.42287   0.58522   0.63792   1.000
    C137    C    0.33700   0.12595   0.63976   1.000
    O138    O    0.39312   0.16465   0.67722   1.000
    O139    O    0.42287   0.08522   0.63792   1.000
    O140    O    0.30846   0.16662   0.67596   1.000
    O141    O    0.31002   0.08365   0.59323   1.000
    C142    C    0.80218   0.87405   0.63970   1.000
    O143    O    0.78273   0.91635   0.59317   1.000
    O144    O    0.78376   0.83535   0.67720   1.000
    O145    O    0.86715   0.83334   0.67594   1.000
    O146    O    0.71446   0.91480   0.63786   1.000
    C147    C    0.80218   0.37406   0.63970   1.000
    O148    O    0.86715   0.33336   0.67594   1.000
    O149    O    0.78376   0.33537   0.67720   1.000
    O150    O    0.71446   0.41481   0.63786   1.000
    O151    O    0.78273   0.41635   0.59317   1.000
    C152    C    0.30218   0.37406   0.63970   1.000
    O153    O    0.28273   0.41635   0.59317   1.000
    O154    O    0.36715   0.33335   0.67594   1.000
    O155    O    0.28376   0.33536   0.67720   1.000
    O156    O    0.21446   0.41481   0.63784   1.000
    C157    C    0.33700   0.62594   0.13978   1.000
    O158    O    0.31002   0.58364   0.09324   1.000
    O159    O    0.39311   0.66463   0.17725   1.000
    O160    O    0.30845   0.66661   0.17598   1.000
    O161    O    0.42287   0.58522   0.13793   1.000
    C162    C    0.66307   0.87399   0.36021   1.000
    O163    O    0.60696   0.83530   0.32274   1.000
    O164    O    0.69006   0.91630   0.40675   1.000
    O165    O    0.69162   0.83332   0.32401   1.000
    O166    O    0.57721   0.91472   0.36205   1.000
    C167    C    0.19790   0.12589   0.36028   1.000
    O168    O    0.21632   0.16459   0.32278   1.000
    O169    O    0.13293   0.16660   0.32404   1.000
    O170    O    0.21735   0.08360   0.40681   1.000
    O171    O    0.28562   0.08514   0.36212   1.000
    C172    C    0.69790   0.12589   0.36028   1.000
    O173    O    0.71631   0.16459   0.32278   1.000
    O174    O    0.63293   0.16660   0.32404   1.000
    O175    O    0.71734   0.08360   0.40681   1.000
    O176    O    0.78562   0.08514   0.36211   1.000
    C177    C    0.19790   0.62588   0.36028   1.000
    O178    O    0.28562   0.58513   0.36212   1.000
    O179    O    0.21735   0.58359   0.40681   1.000
    O180    O    0.13293   0.66658   0.32404   1.000
    O181    O    0.21632   0.66457   0.32278   1.000
    C182    C    0.69790   0.62588   0.36028   1.000
    O183    O    0.63293   0.66659   0.32404   1.000
    O184    O    0.78562   0.58513   0.36212   1.000
    O185    O    0.71735   0.58359   0.40681   1.000
    O186    O    0.71631   0.66458   0.32278   1.000
    C187    C    0.83699   0.12596   0.13977   1.000
    O188    O    0.80844   0.16663   0.17597   1.000
    O189    O    0.89311   0.16465   0.17723   1.000
    O190    O    0.81001   0.08365   0.09324   1.000
    O191    O    0.92286   0.08523   0.13793   1.000
    C192    C    0.16308   0.37400   0.36021   1.000
    O193    O    0.07721   0.41473   0.36205   1.000
    O194    O    0.10697   0.33531   0.32274   1.000
    O195    O    0.19163   0.33333   0.32401   1.000
    O196    O    0.19006   0.41630   0.40675   1.000
    C197    C    0.80217   0.37406   0.13970   1.000
    O198    O    0.86714   0.33336   0.17592   1.000
    O199    O    0.71445   0.41481   0.13786   1.000
    O200    O    0.78273   0.41635   0.09317   1.000
    O201    O    0.78375   0.33537   0.17720   1.000
    C202    C    0.16309   0.37400   0.86020   1.000
    O203    O    0.19007   0.41630   0.90674   1.000
    O204    O    0.19164   0.33333   0.82400   1.000
    O205    O    0.07722   0.41472   0.86204   1.000
    O206    O    0.10697   0.33531   0.82273   1.000
    C207    C    0.30218   0.87405   0.13972   1.000
    O208    O    0.36715   0.83334   0.17595   1.000
    O209    O    0.28273   0.91634   0.09319   1.000
    O210    O    0.21446   0.91480   0.13787   1.000
    O211    O    0.28376   0.83535   0.17721   1.000
    C212    C    0.83699   0.62594   0.13977   1.000
    O213    O    0.89311   0.66463   0.17725   1.000
    O214    O    0.80844   0.66661   0.17597   1.000
    O215    O    0.81001   0.58364   0.09324   1.000
    O216    O    0.92286   0.58522   0.13794   1.000
    C217    C    0.33700   0.12595   0.13978   1.000
    O218    O    0.39311   0.16465   0.17725   1.000
    O219    O    0.30845   0.16662   0.17598   1.000
    O220    O    0.42287   0.08523   0.13792   1.000
    O221    O    0.31002   0.08365   0.09324   1.000
    C222    C    0.66307   0.37400   0.36021   1.000
    O223    O    0.60696   0.33531   0.32274   1.000
    O224    O    0.57721   0.41473   0.36204   1.000
    O225    O    0.69162   0.33333   0.32401   1.000
    O226    O    0.69005   0.41630   0.40675   1.000
    C227    C    0.16309   0.87399   0.86020   1.000
    O228    O    0.07722   0.91472   0.86204   1.000
    O229    O    0.19164   0.83331   0.82400   1.000
    O230    O    0.19007   0.91629   0.90674   1.000
    O231    O    0.10698   0.83529   0.82273   1.000
loop_
    _geom_bond_atom_site_label_1
    _geom_bond_atom_site_label_2
    _geom_bond_distance
    _geom_bond_site_symmetry_2
    _ccdc_geom_bond_type
    Zr30   O40       1.30512      .   S
    Zr14   O40       1.30512      .   S
    Zr28   O41       1.30512      .   S
    Zr12   O41       1.30512      .   S
    Zr26   O42       1.30514      .   S
    Zr10   O42       1.30514      .   S
    Zr24   O43       1.30514      .   S
    Zr8    O43       1.30514      .   S
    Zr12   O44       1.30514      .   S
    Zr36   O44       1.30514      .   S
    Zr14   O45       1.30514      .   S
    Zr38   O45       1.30514      .   S
    Zr8    O46       1.30514      .   S
    Zr32   O46       1.30514      .   S
    Zr10   O47       1.30515      .   S
    Zr34   O47       1.30515      .   S
    Zr25   O48       1.30534      .   S
    Zr9    O48       1.30534      .   S
    Zr27   O49       1.30514      .   S
    Zr11   O49       1.30514      .   S
    Zr29   O50       1.30515      .   S
    Zr13   O50       1.30515      .   S
    Zr31   O51       1.30514      .   S
    Zr15   O51       1.30514      .   S
    Zr9    O52       1.30514      .   S
    Zr33   O52       1.30514      .   S
    Zr15   O53       1.30514      .   S
    Zr39   O53       1.30514      .   S
    Zr13   O54       1.30513      .   S
    Zr37   O54       1.30513      .   S
    Zr11   O55       1.30515      .   S
    Zr35   O55       1.30515      .   S
    C72    O73       1.14495      .   S
    Zr17   O73       2.29515      .   S
    C72    O74       1.48275      .   S
    N71    O74       2.63153  1_655   S
    C72    O75       1.18772      .   S
    Zr2    O75       2.41596      .   S
    C72    O76       1.17811      .   S
    Zr10   O76       2.41121      .   S
    C77    O78       1.14475      .   S
    Zr18   O78       2.29509      .   S
    C77    O79       1.18766      .   S
    Zr8    O79       2.41641      .   S
    C77    O80       1.17791      .   S
    Zr4    O80       2.41015      .   S
    C77    O81       1.48280      .   S
    N60    O81       2.63154      .   S
    C82    O83       1.48332      .   S
    N61    O83       2.63198      .   S
    C82    O84       1.17843      .   S
    Zr2    O84       2.41076  1_455   S
    C82    O85       1.14356      .   S
    Zr20   O85       2.29397      .   S
    C82    O86       1.18898      .   S
    Zr14   O86       2.41762      .   S
    C87    O88       1.48283      .   S
    N64    O88       2.63161      .   S
    C87    O89       1.14483      .   S
    Zr18   O89       2.29531  1_554   S
    C87    O90       1.18769      .   S
    Zr11   O90       2.41644      .   S
    C87    O91       1.17790      .   S
    Zr3    O91       2.41016      .   S
    C92    O93       1.17790      .   S
    Zr1    O93       2.41016      .   S
    C92    O94       1.48286      .   S
    N59    O94       2.63174  1_565   S
    C92    O95       1.14483      .   S
    Zr16   O95       2.29530  1_564   S
    C92    O96       1.18769      .   S
    Zr9    O96       2.41645      .   S
    C97    O98       1.17786      .   S
    Zr5    O98       2.41010      .   S
    C97    O99       1.14470      .   S
    Zr20   O99       2.29574  1_564   S
    C97    O100      1.18756      .   S
    Zr13   O100      2.41625      .   S
    C97    O101      1.48280      .   S
    N58    O101      2.63164  1_565   S
    C102   O103      1.17783      .   S
    Zr7    O103      2.41007      .   S
    C102   O104      1.14479      .   S
    Zr22   O104      2.29584  1_554   S
    C102   O105      1.48273      .   S
    N68    O105      2.63150      .   S
    C102   O106      1.18769      .   S
    Zr15   O106      2.41595      .   S
    C107   O108      1.18770      .   S
    Zr5    O108      2.41606      .   S
    C107   O109      1.48271      .   S
    N64    O109      2.63140      .   S
    C107   O110      1.17822      .   S
    Zr13   O110      2.41125      .   S
    C107   O111      1.14491      .   S
    Zr22   O111      2.29504  1_554   S
    C112   O113      1.48277      .   S
    N59    O113      2.63151      .   S
    C112   O114      1.17811      .   S
    Zr15   O114      2.41122      .   S
    C112   O115      1.18767      .   S
    Zr7    O115      2.41603      .   S
    C112   O116      1.14488      .   S
    Zr20   O116      2.29552  1_554   S
    C117   O118      1.48276      .   S
    N67    O118      2.63166      .   S
    C117   O119      1.14483      .   S
    Zr17   O119      2.29528      .   S
    C117   O120      1.17789      .   S
    Zr7    O120      2.41014      .   S
    C117   O121      1.18767      .   S
    Zr11   O121      2.41634      .   S
    C122   O123      1.14481      .   S
    Zr23   O123      2.29482      .   S
    C122   O124      1.17820      .   S
    Zr15   O124      2.41130      .   S
    C122   O125      1.18773      .   S
    Zr3    O125      2.41614  1_455   S
    C122   O126      1.48278      .   S
    N66    O126      2.63159  1_455   S
    C127   O128      1.14481      .   S
    Zr21   O128      2.29482  1_565   S
    C127   O129      1.18773      .   S
    Zr1    O129      2.41614  1_455   S
    C127   O130      1.17820      .   S
    Zr13   O130      2.41130      .   S
    C127   O131      1.48281      .   S
    N67    O131      2.63172  1_465   S
    C132   O133      1.18765      .   S
    Zr7    O133      2.41610      .   S
    C132   O134      1.14477      .   S
    Zr19   O134      2.29483      .   S
    C132   O135      1.17822      .   S
    Zr11   O135      2.41132      .   S
    C132   O136      1.48268      .   S
    N62    O136      2.63140      .   S
    C137   O138      1.18765      .   S
    Zr5    O138      2.41610      .   S
    C137   O139      1.48271      .   S
    N56    O139      2.63151  1_565   S
    C137   O140      1.17821      .   S
    Zr9    O140      2.41132      .   S
    C137   O141      1.14477      .   S
    Zr17   O141      2.29483  1_565   S
    C142   O143      1.14483      .   S
    Zr21   O143      2.29527      .   S
    C142   O144      1.18767      .   S
    Zr15   O144      2.41636      .   S
    C142   O145      1.17793      .   S
    Zr3    O145      2.41023  1_455   S
    C142   O146      1.48283      .   S
    N56    O146      2.63167      .   S
    C147   O148      1.17793      .   S
    Zr1    O148      2.41024  1_455   S
    C147   O149      1.18767      .   S
    Zr13   O149      2.41635      .   S
    C147   O150      1.48280      .   S
    N62    O150      2.63156      .   S
    C147   O151      1.14475      .   S
    Zr23   O151      2.29504      .   S
    C152   O153      1.14475      .   S
    Zr19   O153      2.29504      .   S
    C152   O154      1.17789      .   S
    Zr5    O154      2.41014      .   S
    C152   O155      1.18767      .   S
    Zr9    O155      2.41633      .   S
    C152   O156      1.48274      .   S
    N66    O156      2.63160      .   S
    C157   O158      1.14484      .   S
    Zr18   O158      2.29491      .   S
    C157   O159      1.18771      .   S
    Zr6    O159      2.41606      .   S
    C157   O160      1.17818      .   S
    Zr10   O160      2.41135      .   S
    C157   O161      1.48279      .   S
    N63    O161      2.63142      .   S
    C162   O163      1.18770      .   S
    Zr6    O163      2.41603      .   S
    C162   O164      1.14491      .   S
    Zr21   O164      2.29511      .   S
    C162   O165      1.17819      .   S
    Zr14   O165      2.41136      .   S
    C162   O166      1.48270      .   S
    N57    O166      2.63152      .   S
    C167   O168      1.18766      .   S
    Zr8    O168      2.41634      .   S
    C167   O169      1.17789      .   S
    Zr0    O169      2.41012      .   S
    C167   O170      1.14474      .   S
    Zr17   O170      2.29505  1_565   S
    C167   O171      1.48285      .   S
    N57    O171      2.63169  1_565   S
    C172   O173      1.18768      .   S
    Zr12   O173      2.41642      .   S
    C172   O174      1.17789      .   S
    Zr4    O174      2.41013      .   S
    C172   O175      1.14475      .   S
    Zr21   O175      2.29505  1_565   S
    C172   O176      1.48291      .   S
    N71    O176      2.63191  1_565   S
    C177   O178      1.48282      .   S
    N65    O178      2.63161      .   S
    C177   O179      1.14475      .   S
    Zr19   O179      2.29505      .   S
    C177   O180      1.17789      .   S
    Zr2    O180      2.41012      .   S
    C177   O181      1.18765      .   S
    Zr10   O181      2.41633      .   S
    C182   O183      1.17789      .   S
    Zr6    O183      2.41013      .   S
    C182   O184      1.48283      .   S
    N70    O184      2.63161      .   S
    C182   O185      1.14475      .   S
    Zr23   O185      2.29505      .   S
    C182   O186      1.18769      .   S
    Zr14   O186      2.41642      .   S
    C187   O188      1.17823      .   S
    Zr12   O188      2.41133      .   S
    C187   O189      1.18769      .   S
    Zr0    O189      2.41626  1_455   S
    C187   O190      1.14477      .   S
    Zr20   O190      2.29483  1_565   S
    C187   O191      1.48276      .   S
    N69    O191      2.63163  1_465   S
    C192   O193      1.48275      .   S
    N70    O193      2.63154  1_655   S
    C192   O194      1.18769      .   S
    Zr0    O194      2.41603      .   S
    C192   O195      1.17816      .   S
    Zr8    O195      2.41127      .   S
    C192   O196      1.14482      .   S
    Zr19   O196      2.29487      .   S
    C197   O198      1.17788      .   S
    Zr0    O198      2.41041  1_455   S
    C197   O199      1.48285      .   S
    N63    O199      2.63158      .   S
    C197   O200      1.14464      .   S
    Zr22   O200      2.29491      .   S
    C197   O201      1.18777      .   S
    Zr12   O201      2.41647      .   S
    C202   O203      1.14488      .   S
    Zr18   O203      2.29501  1_554   S
    C202   O204      1.17819      .   S
    Zr9    O204      2.41136      .   S
    C202   O205      1.48275      .   S
    N68    O205      2.63153  1_655   S
    C202   O206      1.18771      .   S
    Zr1    O206      2.41606      .   S
    C207   O208      1.17791      .   S
    Zr6    O208      2.41016      .   S
    C207   O209      1.14481      .   S
    Zr16   O209      2.29532      .   S
    C207   O210      1.48285      .   S
    N69    O210      2.63169      .   S
    C207   O211      1.18764      .   S
    Zr10   O211      2.41647      .   S
    C212   O213      1.18775      .   S
    Zr2    O213      2.41616  1_455   S
    C212   O214      1.17818      .   S
    Zr14   O214      2.41127      .   S
    C212   O215      1.14488      .   S
    Zr22   O215      2.29483      .   S
    C212   O216      1.48277      .   S
    N60    O216      2.63158  1_455   S
    C217   O218      1.18770      .   S
    Zr4    O218      2.41605      .   S
    C217   O219      1.17819      .   S
    Zr8    O219      2.41136      .   S
    C217   O220      1.48292      .   S
    N61    O220      2.63174  1_565   S
    C217   O221      1.14484      .   S
    Zr16   O221      2.29491  1_565   S
    C222   O223      1.18770      .   S
    Zr4    O223      2.41603      .   S
    C222   O224      1.48267      .   S
    N65    O224      2.63140      .   S
    C222   O225      1.17819      .   S
    Zr12   O225      2.41136      .   S
    C222   O226      1.14483      .   S
    Zr23   O226      2.29488      .   S
    C227   O228      1.48277      .   S
    N58    O228      2.63163  1_655   S
    C227   O229      1.17819      .   S
    Zr11   O229      2.41136      .   S
    C227   O230      1.14496      .   S
    Zr16   O230      2.29525  1_554   S
    C227   O231      1.18771      .   S
    Zr3    O231      2.41606      .   S
