# CIF file generated by openbabel 2.4.90, see http://openbabel.sf.net
data_I
_chemical_name_common ''
_cell_length_a 14.239
_cell_length_b 14.542
_cell_length_c 15.068
_cell_angle_alpha 89.691
_cell_angle_beta 90.222
_cell_angle_gamma 90.189
_space_group_name_H-M_alt 'P 1'
_space_group_name_Hall 'P 1'
loop_
    _symmetry_equiv_pos_as_xyz
    x,y,z
loop_
    _atom_site_label
    _atom_site_type_symbol
    _atom_site_fract_x
    _atom_site_fract_y
    _atom_site_fract_z
    _atom_site_occupancy
    Zn0     Zn   0.69105   0.66043   0.82545   1.000
    Zn1     Zn   0.93441   0.45719   0.44800   1.000
    Zn2     Zn   0.80696   0.34317   0.32602   1.000
    Zn3     Zn   0.43229   0.04305   0.55122   1.000
    Zn4     Zn   0.30810   0.16027   0.67097   1.000
    Zn5     Zn   0.06568   0.96061   0.05095   1.000
    Zn6     Zn   0.18983   0.84369   0.17448   1.000
    Zn7     Zn   0.56481   0.54309   0.94793   1.000
