# CIF file generated by openbabel 2.4.90, see http://openbabel.sf.net
data_I
_chemical_name_common ''
_cell_length_a 14.239
_cell_length_b 14.542
_cell_length_c 15.068
_cell_angle_alpha 89.691
_cell_angle_beta 90.222
_cell_angle_gamma 90.189
_space_group_name_H-M_alt 'P 1'
_space_group_name_Hall 'P 1'
loop_
    _symmetry_equiv_pos_as_xyz
    x,y,z
loop_
    _atom_site_label
    _atom_site_type_symbol
    _atom_site_fract_x
    _atom_site_fract_y
    _atom_site_fract_z
    _atom_site_occupancy
    N0      N    0.85112   0.66569   0.16081   1.000
    N1      N    0.64858   0.33631   0.66062   1.000
    N2      N    0.14763   0.16625   0.33710   1.000
    N3      N    0.35046   0.83669   0.83971   1.000
    Zr4     Zr   0.69105   0.66043   0.82545   1.000
    O5      O    0.73205   0.66419   0.92661   1.000
    O6      O    0.68053   0.56109   0.78474   1.000
    O7      O    0.58743   0.70593   0.82740   1.000
    Zr8     Zr   0.93441   0.45719   0.44800   1.000
    O9      O    0.91455   0.52242   0.36604   1.000
    O10     O    0.85209   0.42533   0.51343   1.000
    O11     O    0.99997   0.37291   0.41905   1.000
    Zr12    Zr   0.80696   0.34317   0.32602   1.000
    O13     O    0.81806   0.44209   0.28555   1.000
    O14     O    0.76679   0.33864   0.42713   1.000
    O15     O    0.91057   0.29751   0.32695   1.000
    Zr16    Zr   0.43229   0.04305   0.55122   1.000
    O17     O    0.41289   0.97836   0.63358   1.000
    O18     O    0.49862   0.12801   0.58000   1.000
    O19     O    0.35030   0.07535   0.48527   1.000
    Zr20    Zr   0.30810   0.16027   0.67097   1.000
    O21     O    0.41142   0.20578   0.67062   1.000
    O22     O    0.26752   0.16421   0.57002   1.000
    O23     O    0.31870   0.06093   0.71266   1.000
    Zr24    Zr   0.06568   0.96061   0.05095   1.000
    O25     O    0.99979   0.87520   0.07985   1.000
    O26     O    0.08471   0.02524   0.13248   1.000
    O27     O    0.14769   0.92771   0.98590   1.000
    Zr28    Zr   0.18983   0.84369   0.17448   1.000
    O29     O    0.08694   0.79764   0.17296   1.000
    O30     O    0.17888   0.94281   0.21384   1.000
    O31     O    0.23094   0.83931   0.07343   1.000
    Zr32    Zr   0.56481   0.54309   0.94793   1.000
    O33     O    0.64758   0.57528   0.01321   1.000
    O34     O    0.58490   0.47859   0.86574   1.000
    O35     O    0.49917   0.62826   0.91994   1.000
loop_
    _geom_bond_atom_site_label_1
    _geom_bond_atom_site_label_2
    _geom_bond_distance
    _geom_bond_site_symmetry_2
    _ccdc_geom_bond_type
    Zr4    O5        1.63129      .   S
    N0     O5        3.90926  1_554   S
    Zr4    O6        1.57901      .   S
    N1     O6        3.79984      .   S
    Zr4    O7        1.61943      .   S
    N3     O7        3.88409      .   S
    Zr8    O9        1.57839      .   S
    N0     O9        3.82633      .   S
    Zr8    O10       1.60032      .   S
    N1     O10       3.87123      .   S
    Zr8    O11       1.60634      .   S
    N2     O11       3.88315  1_455   S
    Zr12   O13       1.56700      .   S
    N0     O13       3.77606      .   S
    Zr12   O14       1.63040      .   S
    N1     O14       3.90589      .   S
    Zr12   O15       1.61987      .   S
    N2     O15       3.88544  1_455   S
    Zr16   O17       1.57791  1_545   S
    N3     O17       3.82381      .   S
    Zr16   O18       1.61290      .   S
    N1     O18       3.89708      .   S
    Zr16   O19       1.60016      .   S
    N2     O19       3.87341      .   S
    Zr20   O21       1.61114      .   S
    N1     O21       3.87137      .   S
    Zr20   O22       1.62592      .   S
    N2     O22       3.89683      .   S
    Zr20   O23       1.57969      .   S
    N3     O23       3.79979  1_565   S
    Zr24   O25       1.61312  1_455   S
    N0     O25       3.89732      .   S
    Zr24   O26       1.57295  1_565   S
    N2     O26       3.81422      .   S
    Zr24   O27       1.60335  1_554   S
    N3     O27       3.87901      .   S
    Zr28   O29       1.60886      .   S
    N0     O29       3.86619  1_655   S
    Zr28   O30       1.57011      .   S
    N2     O30       3.77965  1_545   S
    Zr28   O31       1.63507      .   S
    N3     O31       3.91770  1_556   S
    Zr32   O33       1.60247  1_556   S
    N0     O33       3.87697      .   S
    Zr32   O34       1.58510      .   S
    N1     O34       3.84168      .   S
    Zr32   O35       1.60751      .   S
    N3     O35       3.88787      .   S
