# CIF file generated by openbabel 2.4.90, see http://openbabel.sf.net
data_I
_chemical_name_common ''
_cell_length_a 13.423
_cell_length_b 13.464
_cell_length_c 16.481
_cell_angle_alpha 89.995
_cell_angle_beta 90.02
_cell_angle_gamma 89.893
_space_group_name_H-M_alt 'P 1'
_space_group_name_Hall 'P 1'
loop_
    _symmetry_equiv_pos_as_xyz
    x,y,z
loop_
    _atom_site_label
    _atom_site_type_symbol
    _atom_site_fract_x
    _atom_site_fract_y
    _atom_site_fract_z
    _atom_site_occupancy
    Lv0     Lv   0.87505   0.74962   0.75019   1.000
    Lv1     Lv   0.37490   0.75039   0.25020   1.000
    Lv2     Lv   0.87500   0.75040   0.25021   1.000
    Lv3     Lv   0.62491   0.25040   0.24978   1.000
    Lv4     Lv   0.12499   0.25038   0.24977   1.000
    Lv5     Lv   0.37513   0.74959   0.75020   1.000
    Lv6     Lv   0.62513   0.24960   0.74977   1.000
    Lv7     Lv   0.12504   0.24960   0.74977   1.000
