# CIF file generated by openbabel 2.4.90, see http://openbabel.sf.net
data_I
_chemical_name_common ''
_cell_length_a 13.423
_cell_length_b 13.464
_cell_length_c 16.481
_cell_angle_alpha 89.995
_cell_angle_beta 90.02
_cell_angle_gamma 89.893
_space_group_name_H-M_alt 'P 1'
_space_group_name_Hall 'P 1'
loop_
    _symmetry_equiv_pos_as_xyz
    x,y,z
loop_
    _atom_site_label
    _atom_site_type_symbol
    _atom_site_fract_x
    _atom_site_fract_y
    _atom_site_fract_z
    _atom_site_occupancy
    Al0     Al   0.50001   0.00000   0.00000   1.000
    Al1     Al   0.25000   0.50000   0.50002   1.000
    Al2     Al   0.75004   0.50000   0.49990   1.000
    Al3     Al   0.25001   1.00000   0.99998   1.000
    Al4     Al   0.00000   0.50000   0.49999   1.000
    Al5     Al   0.50002   0.50000   0.49999   1.000
    H6      H    0.12520   0.86972   0.98723   1.000
    H7      H    0.62521   0.86987   0.98664   1.000
    H8      H    0.12482   0.63002   0.48623   1.000
    H9      H    0.62483   0.63039   0.48772   1.000
    H10     H    0.37483   0.13013   0.01334   1.000
    H11     H    0.87484   0.13028   0.01275   1.000
    Al12    Al   0.00000   0.00000   0.00000   1.000
    H13     H    0.37521   0.36961   0.51227   1.000
    H14     H    0.87522   0.36997   0.51375   1.000
    C15     C    0.12527   0.38171   0.61121   1.000
    C16     C    0.62542   0.38169   0.61119   1.000
    C17     C    0.12474   0.11792   0.88860   1.000
    C18     C    0.62480   0.11794   0.88860   1.000
    C19     C    0.12480   0.11830   0.11120   1.000
    C20     C    0.62475   0.11830   0.11121   1.000
    C21     C    0.12522   0.38205   0.38862   1.000
    C22     C    0.62511   0.38209   0.38860   1.000
    C23     C    0.37462   0.61831   0.38879   1.000
    C24     C    0.87477   0.61828   0.38877   1.000
    C25     C    0.37524   0.88206   0.11137   1.000
    C26     C    0.87530   0.88208   0.11138   1.000
    C27     C    0.37529   0.88170   0.88877   1.000
    C28     C    0.87524   0.88169   0.88878   1.000
    C29     C    0.37493   0.61791   0.61138   1.000
    C30     C    0.87482   0.61795   0.61136   1.000
    O31     O    0.12512   0.94003   0.00000   1.000
    O32     O    0.62513   0.94001   0.00000   1.000
    O33     O    0.04009   0.09223   0.91650   1.000
    O34     O    0.54016   0.09223   0.91650   1.000
    O35     O    0.04072   0.40808   0.58320   1.000
    O36     O    0.54088   0.40806   0.58318   1.000
    O37     O    0.20940   0.09209   0.91660   1.000
    O38     O    0.70946   0.09212   0.91663   1.000
    O39     O    0.20977   0.40802   0.58331   1.000
    O40     O    0.70995   0.40793   0.58320   1.000
    O41     O    0.12491   0.56000   0.50005   1.000
    O42     O    0.62493   0.55994   0.49998   1.000
    O43     O    0.20988   0.40773   0.41655   1.000
    O44     O    0.70974   0.40782   0.41651   1.000
    O45     O    0.20935   0.09196   0.08321   1.000
    O46     O    0.70929   0.09194   0.08323   1.000
    O47     O    0.04057   0.40789   0.41658   1.000
    O48     O    0.54044   0.40788   0.41659   1.000
    O49     O    0.04029   0.09202   0.08327   1.000
    O50     O    0.54023   0.09201   0.08327   1.000
    O51     O    0.37491   0.05999   0.99995   1.000
    O52     O    0.87492   0.05997   0.99998   1.000
    O53     O    0.45988   0.90776   0.08349   1.000
    O54     O    0.95994   0.90776   0.08348   1.000
    O55     O    0.45916   0.59194   0.41680   1.000
    O56     O    0.95932   0.59192   0.41679   1.000
    O57     O    0.29058   0.90787   0.08336   1.000
    O58     O    0.79064   0.90791   0.08338   1.000
    O59     O    0.29009   0.59206   0.41671   1.000
    O60     O    0.79027   0.59198   0.41668   1.000
    O61     O    0.37511   0.44005   0.50000   1.000
    O62     O    0.87513   0.43999   0.49993   1.000
    O63     O    0.29030   0.59217   0.58347   1.000
    O64     O    0.79016   0.59226   0.58343   1.000
    O65     O    0.29075   0.90806   0.91675   1.000
    O66     O    0.79069   0.90804   0.91677   1.000
    O67     O    0.45960   0.59212   0.58339   1.000
    O68     O    0.95947   0.59211   0.58340   1.000
    O69     O    0.45981   0.90799   0.91670   1.000
    O70     O    0.95975   0.90798   0.91672   1.000
    Og71    Og   0.12526   0.35894   0.63501   1.000
    Og72    Og   0.62540   0.35892   0.63500   1.000
    Og73    Og   0.12477   0.14053   0.86465   1.000
    Og74    Og   0.62484   0.14055   0.86465   1.000
    Og75    Og   0.12481   0.14107   0.13501   1.000
    Og76    Og   0.62476   0.14106   0.13502   1.000
    Og77    Og   0.12519   0.35944   0.36467   1.000
    Og78    Og   0.62508   0.35947   0.36465   1.000
    Og79    Og   0.37464   0.64107   0.36498   1.000
    Og80    Og   0.87478   0.64105   0.36495   1.000
    Og81    Og   0.37520   0.85945   0.13532   1.000
    Og82    Og   0.87527   0.85947   0.13533   1.000
    Og83    Og   0.37528   0.85893   0.86497   1.000
    Og84    Og   0.87523   0.85893   0.86497   1.000
    Og85    Og   0.37495   0.64052   0.63532   1.000
    Og86    Og   0.87485   0.64056   0.63531   1.000
loop_
    _geom_bond_atom_site_label_1
    _geom_bond_atom_site_label_2
    _geom_bond_distance
    _geom_bond_site_symmetry_2
    _ccdc_geom_bond_type
    Al0    O32       1.86221  1_545   S
    Al0    O50       1.92662      .   S
    Al0    O53       1.93093  1_545   S
    Al0    O34       1.93108  1_554   S
    Al0    O69       1.92695  1_544   S
    Al0    O51       1.86201  1_554   S
    Al12   O49       1.92693      .   S
    Al12   O54       1.93053  1_445   S
    Al12   O33       1.93089  1_554   S
    Al12   O70       1.92693  1_444   S
    Al12   O52       1.86163  1_454   S
    O31    H6        0.96978  1_554   S
    O31    Al3       1.86210  1_554   S
    O32    H7        0.96970  1_554   S
    H11    O52       0.96978  1_554   S
    H10    O51       0.96980  1_554   S
    O45    C19       1.27490      .   S
    O45    Al3       1.92638  1_544   S
    O46    C20       1.27481      .   S
    O50    C20       1.27498      .   S
    O49    C19       1.27489      .   S
    O57    C25       1.27419      .   S
    O57    Al3       1.92874  1_554   S
    O58    C26       1.27411      .   S
    O54    C26       1.27427      .   S
    O53    C25       1.27419      .   S
    C22    O44       1.27411      .   S
    C22    O48       1.27426      .   S
    C21    O43       1.27436      .   S
    C21    O47       1.27407      .   S
    C24    O60       1.27488      .   S
    C24    O56       1.27498      .   S
    C23    O59       1.27510      .   S
    C23    O55       1.27479      .   S
    O44    Al2       1.92974      .   S
    O43    Al1       1.93083      .   S
    O47    Al4       1.92943      .   S
    O48    Al5       1.92884      .   S
    O60    Al2       1.92596      .   S
    O59    Al1       1.92712      .   S
    O56    Al4       1.92529  1_655   S
    O55    Al5       1.92606      .   S
    H8     O41       0.96984      .   S
    H9     O42       0.96975      .   S
    Al2    O62       1.86203      .   S
    Al2    O42       1.86187      .   S
    Al2    O40       1.92701      .   S
    Al2    O64       1.93153      .   S
    O62    H14       0.96984      .   S
    Al4    O35       1.92555      .   S
    Al4    O68       1.92930  1_455   S
    Al5    O36       1.92606      .   S
    Al5    O67       1.92883      .   S
    O61    Al1       1.86187      .   S
    O61    H13       0.96977      .   S
    Al1    O41       1.86203      .   S
    Al1    O39       1.92679      .   S
    Al1    O63       1.93044      .   S
    O36    C16       1.27478      .   S
    O35    C15       1.27492      .   S
    O40    C16       1.27553      .   S
    O39    C15       1.27480      .   S
    O67    C29       1.27427      .   S
    O68    C30       1.27408      .   S
    O64    C30       1.27434      .   S
    O63    C29       1.27411      .   S
    C17    O33       1.27427      .   S
    C17    O37       1.27411      .   S
    C18    O34       1.27431      .   S
    C18    O38       1.27431      .   S
    C27    O69       1.27491      .   S
    C27    O65       1.27481      .   S
    C28    O70       1.27495      .   S
    C28    O66       1.27490      .   S
    O37    Al3       1.92863  1_545   S
    O65    Al3       1.92644      .   S
    O31    Al12      1.86212  1_565   S
    O41    Al4       1.86252      .   S
    O42    Al5       1.86215      .   S
    O51    Al3       1.86231  1_545   S
    O61    Al5       1.86213      .   S
    O62    Al4       1.86204  1_655   S
    C15    Og71      0.49787      .   S
    C16    Og72      0.49790      .   S
    C17    Og73      0.49851      .   S
    C18    Og74      0.49845      .   S
    C19    Og75      0.49791      .   S
    C20    Og76      0.49793      .   S
    C21    Og77      0.49855      .   S
    C22    Og78      0.49851      .   S
    C23    Og79      0.49785      .   S
    C24    Og80      0.49812      .   S
    C25    Og81      0.49849      .   S
    C26    Og82      0.49851      .   S
    C27    Og83      0.49788      .   S
    C28    Og84      0.49787      .   S
    C29    Og85      0.49838      .   S
    C30    Og86      0.49855      .   S
