# CIF file generated by openbabel 2.4.90, see http://openbabel.sf.net
data_I
_chemical_name_common ''
_cell_length_a 13.423
_cell_length_b 13.464
_cell_length_c 16.481
_cell_angle_alpha 89.995
_cell_angle_beta 90.02
_cell_angle_gamma 89.893
_space_group_name_H-M_alt 'P 1'
_space_group_name_Hall 'P 1'
loop_
    _symmetry_equiv_pos_as_xyz
    x,y,z
loop_
    _atom_site_label
    _atom_site_type_symbol
    _atom_site_fract_x
    _atom_site_fract_y
    _atom_site_fract_z
    _atom_site_occupancy
    C0      C    0.12527   0.38171   0.61121   1.000
    C1      C    0.62542   0.38169   0.61119   1.000
    C2      C    0.12474   0.11792   0.88860   1.000
    C3      C    0.62480   0.11794   0.88860   1.000
    C4      C    0.12480   0.11830   0.11120   1.000
    C5      C    0.62475   0.11830   0.11121   1.000
    C6      C    0.12522   0.38205   0.38862   1.000
    C7      C    0.62511   0.38209   0.38860   1.000
    C8      C    0.37462   0.61831   0.38879   1.000
    C9      C    0.87477   0.61828   0.38877   1.000
    C10     C    0.37524   0.88206   0.11137   1.000
    C11     C    0.87530   0.88208   0.11138   1.000
    C12     C    0.37529   0.88170   0.88877   1.000
    C13     C    0.87524   0.88169   0.88878   1.000
    C14     C    0.37493   0.61791   0.61138   1.000
    C15     C    0.87482   0.61795   0.61136   1.000
