# CIF file generated by openbabel 2.4.90, see http://openbabel.sf.net
data_I
_chemical_name_common ''
_cell_length_a 13.423
_cell_length_b 13.464
_cell_length_c 16.481
_cell_angle_alpha 89.995
_cell_angle_beta 90.02
_cell_angle_gamma 89.893
_space_group_name_H-M_alt 'P 1'
_space_group_name_Hall 'P 1'
loop_
    _symmetry_equiv_pos_as_xyz
    x,y,z
loop_
    _atom_site_label
    _atom_site_type_symbol
    _atom_site_fract_x
    _atom_site_fract_y
    _atom_site_fract_z
    _atom_site_occupancy
    Zr0     Zr   0.25000   0.50000   0.50002   1.000
    Zr1     Zr   0.75004   0.50000   0.49990   1.000
    Zr2     Zr   0.00000   0.50000   0.49999   1.000
    Zr3     Zr   0.50002   0.50000   0.49999   1.000
    N4      N    0.87505   0.74962   0.75019   1.000
    N5      N    0.37490   0.75039   0.25020   1.000
    N6      N    0.87500   0.75040   0.25021   1.000
    N7      N    0.62491   0.25040   0.24978   1.000
    N8      N    0.12499   0.25038   0.24977   1.000
    N9      N    0.37513   0.74959   0.75020   1.000
    N10     N    0.62513   0.24960   0.74977   1.000
    N11     N    0.12504   0.24960   0.74977   1.000
    Zr12    Zr   0.25002   1.00000   0.99999   1.000
    O13     O    0.18747   0.10036   0.90060   1.000
    O14     O    0.43751   0.10036   0.90061   1.000
    O15     O    0.06258   0.89929   0.90081   1.000
    O16     O    0.18746   0.10071   0.09917   1.000
    O17     O    0.31261   0.89929   0.90081   1.000
    O18     O    0.06257   0.89964   0.09937   1.000
    O19     O    0.43743   0.10071   0.09917   1.000
    O20     O    0.31253   0.89963   0.09937   1.000
    C21     C    0.87479   0.60073   0.40741   1.000
    O22     O    0.82247   0.57336   0.43285   1.000
    O23     O    0.92722   0.57334   0.43290   1.000
    O24     O    0.87484   0.65107   0.35452   1.000
    C25     C    0.62488   0.59517   0.49385   1.000
    O26     O    0.65618   0.56257   0.49689   1.000
    O27     O    0.59368   0.56257   0.49692   1.000
    C28     C    0.87482   0.60077   0.59273   1.000
    O29     O    0.92727   0.57341   0.56721   1.000
    O30     O    0.82246   0.57345   0.56720   1.000
    O31     O    0.87489   0.65076   0.64574   1.000
    C32     C    0.12525   0.39927   0.59257   1.000
    O33     O    0.17757   0.42664   0.56712   1.000
    O34     O    0.12520   0.34892   0.64546   1.000
    O35     O    0.07280   0.42665   0.56708   1.000
    C36     C    0.62510   0.39926   0.40723   1.000
    O37     O    0.62504   0.34927   0.35423   1.000
    O38     O    0.67749   0.42659   0.43272   1.000
    O39     O    0.57266   0.42660   0.43276   1.000
    C40     C    0.87518   0.40498   0.50684   1.000
    O41     O    0.84388   0.43749   0.50338   1.000
    O42     O    0.90637   0.43749   0.50340   1.000
    C43     C    0.12522   0.39922   0.40725   1.000
    O44     O    0.12515   0.34924   0.35424   1.000
    O45     O    0.07275   0.42658   0.43277   1.000
    O46     O    0.17758   0.42654   0.43277   1.000
    C47     C    0.37516   0.40483   0.50614   1.000
    O48     O    0.34386   0.43743   0.50307   1.000
    O49     O    0.40636   0.43743   0.50306   1.000
    C50     C    0.12486   0.59501   0.49314   1.000
    O51     O    0.15616   0.56251   0.49659   1.000
    O52     O    0.09366   0.56251   0.49658   1.000
    C53     C    0.37462   0.60077   0.40743   1.000
    O54     O    0.37470   0.65110   0.35454   1.000
    O55     O    0.32233   0.57340   0.43290   1.000
    O56     O    0.42710   0.57337   0.43291   1.000
    C57     C    0.62542   0.39923   0.59252   1.000
    O58     O    0.62534   0.34890   0.64543   1.000
    O59     O    0.57293   0.42663   0.56705   1.000
    O60     O    0.67771   0.42660   0.56704   1.000
    C61     C    0.37494   0.60073   0.59275   1.000
    O62     O    0.42738   0.57340   0.56722   1.000
    O63     O    0.32255   0.57341   0.56725   1.000
    O64     O    0.37500   0.65072   0.64575   1.000
    Zr65    Zr   0.75001   0.00000   0.40000   1.000
loop_
    _geom_bond_atom_site_label_1
    _geom_bond_atom_site_label_2
    _geom_bond_distance
    _geom_bond_site_symmetry_2
    _ccdc_geom_bond_type
    Zr12   O13       2.28215  1_565   S
    N11    O13       3.30318      .   S
    Zr12   O14       3.29509  1_565   S
    N10    O14       4.07221      .   S
    Zr12   O15       3.29408      .   S
    N4     O15       4.07120  1_655   S
    Zr12   O16       2.28308  1_566   S
    N8     O16       3.30475      .   S
    Zr12   O17       2.28331      .   S
    N9     O17       3.30506      .   S
    Zr12   O18       3.29464  1_556   S
    N6     O18       4.07172  1_655   S
    Zr12   O19       3.29377  1_566   S
    N7     O19       4.07082      .   S
    Zr12   O20       2.28194  1_556   S
    N5     O20       3.30293      .   S
    C21    O22       0.89770      .   S
    Zr1    O22       1.77375      .   S
    C21    O23       0.89813      .   S
    Zr2    O23       1.77411  1_455   S
    C21    O24       1.10425      .   S
    N6     O24       2.17794      .   S
    C25    O26       0.60908      .   S
    Zr1    O26       1.51503      .   S
    C25    O27       0.60935      .   S
    Zr3    O27       1.51549      .   S
    C28    O29       0.89870      .   S
    Zr2    O29       1.77618  1_455   S
    C28    O30       0.89840      .   S
    Zr1    O30       1.77660      .   S
    C28    O31       1.10280      .   S
    N4     O31       2.17620      .   S
    C32    O33       0.89782      .   S
    Zr0    O33       1.77427      .   S
    C32    O34       1.10410      .   S
    N11    O34       2.17795      .   S
    C32    O35       0.89823      .   S
    Zr2    O35       1.77438      .   S
    C36    O37       1.10281      .   S
    N7     O37       2.17623      .   S
    C36    O38       0.89844      .   S
    Zr1    O38       1.77598      .   S
    C36    O39       0.89838      .   S
    Zr3    O39       1.77551      .   S
    C40    O41       0.60875      .   S
    Zr1    O41       1.51470      .   S
    C40    O42       0.60893      .   S
    Zr2    O42       1.51493  1_455   S
    C43    O44       1.10284      .   S
    N8     O44       2.17633      .   S
    C43    O45       0.89880      .   S
    Zr2    O45       1.77639      .   S
    C43    O46       0.89829      .   S
    Zr0    O46       1.77614      .   S
    C47    O48       0.60910      .   S
    Zr0    O48       1.51506      .   S
    C47    O49       0.60935      .   S
    Zr3    O49       1.51548      .   S
    C50    O51       0.60872      .   S
    Zr0    O51       1.51467      .   S
    C50    O52       0.60902      .   S
    Zr2    O52       1.51526      .   S
    C53    O54       1.10410      .   S
    N5     O54       2.17804      .   S
    C53    O55       0.89761      .   S
    Zr0    O55       1.77402      .   S
    C53    O56       0.89865      .   S
    Zr3    O56       1.77521      .   S
    C57    O58       1.10424      .   S
    N10    O58       2.17807      .   S
    C57    O59       0.89856      .   S
    Zr3    O59       1.77509      .   S
    C57    O60       0.89777      .   S
    Zr1    O60       1.77418      .   S
    C61    O62       0.89838      .   S
    Zr3    O62       1.77550      .   S
    C61    O63       0.89856      .   S
    Zr0    O63       1.77644      .   S
    C61    O64       1.10277      .   S
    N9     O64       2.17630      .   S
