# CIF file generated by openbabel 2.4.90, see http://openbabel.sf.net
data_I
_chemical_name_common ''
_cell_length_a 14.017
_cell_length_b 15.199
_cell_length_c 15.249
_cell_angle_alpha 85.04
_cell_angle_beta 87.603
_cell_angle_gamma 83.928
_space_group_name_H-M_alt 'P 1'
_space_group_name_Hall 'P 1'
loop_
    _symmetry_equiv_pos_as_xyz
    x,y,z
loop_
    _atom_site_label
    _atom_site_type_symbol
    _atom_site_fract_x
    _atom_site_fract_y
    _atom_site_fract_z
    _atom_site_occupancy
    Zr0     Zr   0.10917   0.90032   0.15991   1.000
    Zr1     Zr   0.31284   0.88119   0.15500   1.000
    Zr2     Zr   0.89089   0.09964   0.84009   1.000
    Zr3     Zr   0.68721   0.11877   0.84499   1.000
    O4      O    0.21100   0.89076   0.15746   1.000
    O5      O    0.78905   0.10921   0.84254   1.000
    N6      N    0.28795   0.11382   0.84287   1.000
    O7      O    0.45065   0.11730   0.84396   1.000
    O8      O    0.12596   0.10710   0.84181   1.000
    N9      N    0.22776   0.38968   0.16024   1.000
    O10     O    0.17212   0.17938   0.15532   1.000
    O11     O    0.26606   0.60319   0.15487   1.000
    O12     O    0.26311   0.16893   0.15961   1.000
    O13     O    0.17541   0.61055   0.16549   1.000
    N14     N    0.19668   0.88841   0.65841   1.000
    O15     O    0.24851   0.88047   0.44102   1.000
    O16     O    0.15777   0.89708   0.44217   1.000
    O17     O    0.16051   0.89151   0.87621   1.000
    O18     O    0.25129   0.89055   0.87186   1.000
    N19     N    0.77229   0.61028   0.83976   1.000
    O20     O    0.82464   0.38942   0.83451   1.000
    O21     O    0.82794   0.82059   0.84468   1.000
    O22     O    0.73398   0.39677   0.84513   1.000
    O23     O    0.73695   0.83104   0.84039   1.000
    N24     N    0.80339   0.11156   0.34159   1.000
    O25     O    0.75155   0.11950   0.55898   1.000
    O26     O    0.74879   0.10942   0.12814   1.000
    O27     O    0.84229   0.10289   0.55783   1.000
    O28     O    0.83958   0.10845   0.12380   1.000
    N29     N    0.71212   0.88615   0.15713   1.000
    O30     O    0.54941   0.88267   0.15604   1.000
    O31     O    0.87410   0.89287   0.15819   1.000
loop_
    _geom_bond_atom_site_label_1
    _geom_bond_atom_site_label_2
    _geom_bond_distance
    _geom_bond_site_symmetry_2
    _ccdc_geom_bond_type
    Zr0    O4        1.41871      .   S
    Zr1    O4        1.41871      .   S
    Zr2    O5        1.41876      .   S
    Zr3    O5        1.41876      .   S
    N6     O7        2.28759      .   S
    Zr3    O7        3.31899      .   S
    N6     O8        2.28442      .   S
    Zr2    O8        3.31016  1_655   S
    N9     O10       3.37715      .   S
    Zr0    O10       4.41674  1_565   S
    N9     O11       3.33840      .   S
    Zr1    O11       4.34404      .   S
    N9     O12       3.34021      .   S
    Zr1    O12       4.36125  1_565   S
    N9     O13       3.36662      .   S
    Zr0    O13       4.39819      .   S
    N14    O15       3.37349      .   S
    Zr1    O15       4.41596      .   S
    N14    O16       3.35373      .   S
    Zr0    O16       4.38121      .   S
    N14    O17       3.34224      .   S
    Zr0    O17       4.36703  1_554   S
    N14    O18       3.37838      .   S
    Zr1    O18       4.42564  1_554   S
    N19    O20       3.36664      .   S
    Zr2    O20       4.39822      .   S
    N19    O21       3.37715      .   S
    Zr2    O21       4.41674  1_545   S
    N19    O22       3.33841      .   S
    Zr3    O22       4.34405      .   S
    N19    O23       3.34019      .   S
    Zr3    O23       4.36124  1_545   S
    N24    O25       3.37350      .   S
    Zr3    O25       4.41595      .   S
    N24    O26       3.37843      .   S
    Zr3    O26       4.42568  1_556   S
    N24    O27       3.35371      .   S
    Zr2    O27       4.38121      .   S
    N24    O28       3.34221      .   S
    Zr2    O28       4.36703  1_556   S
    N29    O30       2.28766      .   S
    Zr1    O30       3.31916      .   S
    N29    O31       2.28439      .   S
    Zr0    O31       3.31006  1_455   S
