# CIF file generated by openbabel 2.4.90, see http://openbabel.sf.net
data_I
_chemical_name_common ''
_cell_length_a 18.27
_cell_length_b 20.957
_cell_length_c 18.59
_cell_angle_alpha 89.889
_cell_angle_beta 90.069
_cell_angle_gamma 89.959
_space_group_name_H-M_alt 'P 1'
_space_group_name_Hall 'P 1'
loop_
    _symmetry_equiv_pos_as_xyz
    x,y,z
loop_
    _atom_site_label
    _atom_site_type_symbol
    _atom_site_fract_x
    _atom_site_fract_y
    _atom_site_fract_z
    _atom_site_occupancy
    H0      H    0.15995   0.02824   0.46665   1.000
    H1      H    0.15994   0.52824   0.46665   1.000
    H2      H    0.65994   0.02824   0.46660   1.000
    H3      H    0.65994   0.52824   0.46665   1.000
    H4      H    0.36878   0.31397   0.60722   1.000
    H5      H    0.36878   0.81397   0.60722   1.000
    H6      H    0.86877   0.31397   0.60722   1.000
    H7      H    0.86877   0.81397   0.60722   1.000
    H8      H    0.16795   0.34443   0.73693   1.000
    H9      H    0.16795   0.84443   0.73693   1.000
    H10     H    0.66795   0.34443   0.73693   1.000
    H11     H    0.66794   0.84443   0.73693   1.000
    H12     H    0.10965   0.39891   0.69159   1.000
    H13     H    0.10965   0.89891   0.69159   1.000
    H14     H    0.60964   0.39891   0.69159   1.000
    H15     H    0.60964   0.89891   0.69159   1.000
    H16     H    0.48917   0.33949   0.70757   1.000
    H17     H    0.48917   0.83949   0.70757   1.000
    H18     H    0.98917   0.33949   0.70757   1.000
    H19     H    0.98916   0.83949   0.70757   1.000
    H20     H    0.42506   0.26136   0.78781   1.000
    H21     H    0.42506   0.76136   0.78781   1.000
    H22     H    0.92506   0.26136   0.78781   1.000
    H23     H    0.92506   0.76136   0.78781   1.000
    H24     H    0.29980   0.40459   0.88016   1.000
    H25     H    0.29979   0.90459   0.88016   1.000
    H26     H    0.79979   0.40459   0.88016   1.000
    H27     H    0.79979   0.90459   0.88016   1.000
    H28     H    0.35802   0.48826   0.80108   1.000
    H29     H    0.35802   0.98826   0.80108   1.000
    H30     H    0.85802   0.48826   0.80108   1.000
    H31     H    0.85802   0.98826   0.80108   1.000
    H32     H    0.41001   0.47214   0.53350   1.000
    H33     H    0.41001   0.97214   0.53350   1.000
    H34     H    0.91000   0.47214   0.53350   1.000
    H35     H    0.91000   0.97214   0.53350   1.000
    H36     H    0.11853   0.18608   0.39285   1.000
    H37     H    0.11853   0.68608   0.39285   1.000
    H38     H    0.61853   0.18608   0.39285   1.000
    H39     H    0.61853   0.68608   0.39285   1.000
    H40     H    0.41758   0.15570   0.26298   1.000
    H41     H    0.41757   0.65570   0.26298   1.000
    H42     H    0.91757   0.15570   0.26298   1.000
    H43     H    0.91757   0.65570   0.26298   1.000
    H44     H    0.35934   0.10125   0.30829   1.000
    H45     H    0.35934   0.60125   0.30829   1.000
    H46     H    0.85934   0.10125   0.30829   1.000
    H47     H    0.85933   0.60125   0.30829   1.000
    H48     H    0.23966   0.16084   0.29241   1.000
    H49     H    0.23965   0.66083   0.29241   1.000
    H50     H    0.73965   0.16084   0.29241   1.000
    H51     H    0.73965   0.66083   0.29241   1.000
    H52     H    0.17601   0.23935   0.21209   1.000
    H53     H    0.17601   0.73934   0.21209   1.000
    H54     H    0.67600   0.23935   0.21209   1.000
    H55     H    0.67601   0.73934   0.21209   1.000
    H56     H    0.04986   0.09689   0.11943   1.000
    H57     H    0.04986   0.59689   0.11943   1.000
    H58     H    0.54985   0.09689   0.11943   1.000
    H59     H    0.54985   0.59689   0.11943   1.000
    H60     H    0.10766   0.01285   0.19847   1.000
    H61     H    0.10765   0.51285   0.19847   1.000
    H62     H    0.60765   0.01285   0.19847   1.000
    H63     H    0.60765   0.51285   0.19847   1.000
    H64     H    0.15963   0.22325   0.96640   1.000
    H65     H    0.15963   0.72325   0.96641   1.000
    H66     H    0.65963   0.22325   0.96640   1.000
    H67     H    0.65962   0.72325   0.96641   1.000
    H68     H    0.36945   0.43620   0.10669   1.000
    H69     H    0.36944   0.93619   0.10669   1.000
    H70     H    0.86944   0.43620   0.10669   1.000
    H71     H    0.86944   0.93619   0.10600   1.000
    H72     H    0.16809   0.40661   0.23620   1.000
    H73     H    0.16809   0.90661   0.23620   1.000
    H74     H    0.66809   0.40661   0.23620   1.000
    H75     H    0.66809   0.90661   0.23620   1.000
    H76     H    0.10977   0.35225   0.19098   1.000
    H77     H    0.10977   0.85225   0.19098   1.000
    H78     H    0.60977   0.35225   0.19098   1.000
    H79     H    0.60977   0.85225   0.19098   1.000
    H80     H    0.48912   0.41075   0.20798   1.000
    H81     H    0.48912   0.91074   0.20798   1.000
    H82     H    0.98911   0.41075   0.20798   1.000
    H83     H    0.98911   0.91074   0.20798   1.000
    C84     C    0.96034   0.61886   0.35548   1.000
    C85     C    0.45584   0.07809   0.41626   1.000
    C86     C    0.45584   0.57809   0.41620   1.000
    C87     C    0.95584   0.07809   0.41620   1.000
    H88     H    0.42518   0.48868   0.28830   1.000
    H89     H    0.42517   0.98868   0.28829   1.000
    H90     H    0.92517   0.48868   0.28800   1.000
    H91     H    0.92517   0.98867   0.28830   1.000
    H92     H    0.29980   0.34535   0.38064   1.000
    H93     H    0.29980   0.84535   0.38064   1.000
    H94     H    0.79980   0.34535   0.38064   1.000
    H95     H    0.79980   0.84535   0.38064   1.000
    H96     H    0.35788   0.26187   0.30148   1.000
    H97     H    0.35789   0.76186   0.30140   1.000
    H98     H    0.85788   0.26186   0.30149   1.000
    H99     H    0.85788   0.76186   0.30148   1.000
    H100    H    0.40968   0.27840   0.03337   1.000
    H101    H    0.40968   0.77840   0.03337   1.000
    H102    H    0.90968   0.27840   0.03337   1.000
    H103    H    0.90968   0.77840   0.03337   1.000
    H104    H    0.11981   0.06548   0.89354   1.000
    H105    H    0.11980   0.56547   0.89354   1.000
    H106    H    0.61980   0.06548   0.89354   1.000
    H107    H    0.61980   0.56548   0.89354   1.000
    H108    H    0.41825   0.09464   0.76385   1.000
    H109    H    0.41825   0.59464   0.76385   1.000
    H110    H    0.91825   0.09464   0.76385   1.000
    H111    H    0.91824   0.59464   0.76385   1.000
    H112    H    0.35967   0.14883   0.80899   1.000
    H113    H    0.35967   0.64882   0.80899   1.000
    H114    H    0.85967   0.14883   0.80899   1.000
    H115    H    0.85967   0.64882   0.80899   1.000
    C116    C    0.44736   0.39473   0.24555   1.000
    C117    C    0.44735   0.89473   0.24550   1.000
    C118    C    0.94735   0.39473   0.24555   1.000
    C119    C    0.94736   0.89473   0.24556   1.000
    C120    C    0.42813   0.33026   0.24897   1.000
    H121    H    0.23956   0.08939   0.79249   1.000
    H122    H    0.23956   0.58939   0.79249   1.000
    H123    H    0.73955   0.08939   0.79249   1.000
    H124    H    0.73955   0.58939   0.79249   1.000
    H125    H    0.17561   0.01137   0.71221   1.000
    H126    H    0.17561   0.51137   0.71221   1.000
    H127    H    0.67559   0.01137   0.71223   1.000
    H128    H    0.67560   0.51137   0.71220   1.000
    H129    H    0.04988   0.15461   0.61955   1.000
    H130    H    0.04987   0.65460   0.61956   1.000
    H131    H    0.54987   0.15461   0.61956   1.000
    H132    H    0.54988   0.65461   0.61955   1.000
    H133    H    0.10796   0.23817   0.69864   1.000
    H134    H    0.10795   0.73816   0.69864   1.000
    H135    H    0.60796   0.23817   0.69860   1.000
    H136    H    0.60795   0.73817   0.69860   1.000
    C137    C    0.18546   0.49044   0.49800   1.000
    C138    C    0.18546   0.99044   0.49800   1.000
    C139    C    0.68545   0.49044   0.49800   1.000
    C140    C    0.68545   0.99044   0.49800   1.000
    C141    C    0.32209   0.34584   0.59922   1.000
    C142    C    0.32209   0.84584   0.59922   1.000
    C143    C    0.82208   0.34584   0.59922   1.000
    C144    C    0.82208   0.84584   0.59922   1.000
    C145    C    0.21063   0.38131   0.64453   1.000
    C146    C    0.21063   0.88131   0.64453   1.000
    C147    C    0.71063   0.38131   0.64453   1.000
    C148    C    0.71063   0.88131   0.64453   1.000
    C149    C    0.20602   0.42212   0.58370   1.000
    C150    C    0.20602   0.92212   0.58370   1.000
    C151    C    0.70602   0.42212   0.58370   1.000
    C152    C    0.70602   0.92212   0.58370   1.000
    C153    C    0.26431   0.41982   0.53444   1.000
    C154    C    0.26430   0.91982   0.53444   1.000
    C155    C    0.76430   0.41982   0.53444   1.000
    C156    C    0.76430   0.91982   0.53444   1.000
    C157    C    0.44740   0.35543   0.74513   1.000
    C158    C    0.44740   0.85543   0.74513   1.000
    C159    C    0.94740   0.35543   0.74513   1.000
    C160    C    0.94739   0.85543   0.74513   1.000
    C161    C    0.42825   0.41994   0.74862   1.000
    C162    C    0.42824   0.91993   0.74860   1.000
    C163    C    0.92824   0.41993   0.74862   1.000
    C164    C    0.92824   0.91993   0.74862   1.000
    C165    C    0.41200   0.31211   0.78940   1.000
    C166    C    0.41200   0.81211   0.78940   1.000
    C167    C    0.91200   0.31211   0.78945   1.000
    C168    C    0.91200   0.81211   0.78944   1.000
    C169    C    0.34143   0.39239   0.84000   1.000
    C170    C    0.34142   0.89239   0.84059   1.000
    C171    C    0.84142   0.39239   0.84059   1.000
    C172    C    0.84142   0.89239   0.84059   1.000
    C173    C    0.37392   0.43832   0.79722   1.000
    C174    C    0.37392   0.93832   0.79722   1.000
    C175    C    0.87391   0.43832   0.79722   1.000
    C176    C    0.87391   0.93832   0.79722   1.000
    C177    C    0.43545   0.00988   0.50212   1.000
    C178    C    0.43545   0.50988   0.50212   1.000
    C179    C    0.93544   0.00988   0.50212   1.000
    C180    C    0.93544   0.50988   0.50212   1.000
    C181    C    0.07186   0.15427   0.40085   1.000
    C182    C    0.07186   0.65427   0.40085   1.000
    C183    C    0.57186   0.15427   0.40080   1.000
    C184    C    0.57186   0.65427   0.40085   1.000
    C185    C    0.46035   0.11886   0.35548   1.000
    C186    C    0.46035   0.61886   0.35548   1.000
    C187    C    0.96035   0.11886   0.35548   1.000
    N188    N    0.07472   0.63341   0.96070   1.000
    N189    N    0.57471   0.13341   0.96075   1.000
    N190    N    0.57471   0.63341   0.96074   1.000
    N191    N    0.40589   0.21779   0.94100   1.000
    N192    N    0.40589   0.71779   0.94100   1.000
    N193    N    0.90589   0.21779   0.94100   1.000
    N194    N    0.90588   0.71779   0.94100   1.000
    N195    N    0.02109   0.09409   0.85019   1.000
    C196    C    0.95584   0.57809   0.41626   1.000
    C197    C    0.01420   0.08040   0.46567   1.000
    C198    C    0.01420   0.58040   0.46567   1.000
    C199    C    0.51419   0.08041   0.46567   1.000
    C200    C    0.51419   0.58040   0.46567   1.000
    C201    C    0.19779   0.14512   0.25476   1.000
    C202    C    0.19779   0.64512   0.25476   1.000
    C203    C    0.69778   0.14513   0.25476   1.000
    C204    C    0.69778   0.64512   0.25476   1.000
    C205    C    0.17832   0.08071   0.25120   1.000
    C206    C    0.17831   0.58071   0.25120   1.000
    C207    C    0.67831   0.08071   0.25100   1.000
    C208    C    0.67831   0.58071   0.25120   1.000
    C209    C    0.16264   0.18867   0.21038   1.000
    C210    C    0.16263   0.68867   0.21038   1.000
    C211    C    0.66263   0.18868   0.21030   1.000
    C212    C    0.66263   0.68867   0.21038   1.000
    C213    C    0.09160   0.10884   0.15905   1.000
    C214    C    0.09159   0.60884   0.15906   1.000
    C215    C    0.59159   0.10884   0.15906   1.000
    C216    C    0.59159   0.60884   0.15906   1.000
    C217    C    0.12386   0.06269   0.20245   1.000
    C218    C    0.12386   0.56268   0.20246   1.000
    C219    C    0.62385   0.06269   0.20246   1.000
    C220    C    0.62385   0.56268   0.20246   1.000
    C221    C    0.18531   0.26088   0.99766   1.000
    C222    C    0.18531   0.76088   0.99766   1.000
    C223    C    0.68530   0.26088   0.99766   1.000
    C224    C    0.68530   0.76088   0.99766   1.000
    C225    C    0.32258   0.40461   0.09869   1.000
    C226    C    0.32258   0.90460   0.09869   1.000
    C227    C    0.82258   0.40460   0.09869   1.000
    C228    C    0.82258   0.90460   0.09869   1.000
    C229    C    0.21082   0.36975   0.14385   1.000
    C230    C    0.21082   0.86975   0.14385   1.000
    C231    C    0.71081   0.36975   0.14385   1.000
    C232    C    0.71081   0.86975   0.14385   1.000
    C233    C    0.20614   0.32901   0.08323   1.000
    C234    C    0.20614   0.82901   0.08323   1.000
    C235    C    0.70614   0.32901   0.08323   1.000
    C236    C    0.70614   0.82901   0.08323   1.000
    C237    C    0.26455   0.33099   0.03400   1.000
    C238    C    0.26454   0.83099   0.03400   1.000
    C239    C    0.76454   0.33099   0.03400   1.000
    C240    C    0.76454   0.83099   0.03400   1.000
    C241    C    0.42813   0.83025   0.24890   1.000
    C242    C    0.92813   0.33026   0.24897   1.000
    C243    C    0.92812   0.83025   0.24897   1.000
    C244    C    0.41205   0.43795   0.28991   1.000
    C245    C    0.41204   0.93795   0.28991   1.000
    C246    C    0.91204   0.43795   0.28991   1.000
    C247    C    0.91204   0.93795   0.28991   1.000
    C248    C    0.34141   0.35762   0.34105   1.000
    C249    C    0.34141   0.85762   0.34105   1.000
    C250    C    0.84141   0.35762   0.34105   1.000
    C251    C    0.84141   0.85762   0.34105   1.000
    C252    C    0.37383   0.31179   0.29762   1.000
    C253    C    0.37383   0.81178   0.29762   1.000
    C254    C    0.87383   0.31178   0.29762   1.000
    C255    C    0.87383   0.81178   0.29760   1.000
    C256    C    0.43537   0.24074   0.00219   1.000
    C257    C    0.43537   0.74074   0.00219   1.000
    C258    C    0.93536   0.24074   0.00219   1.000
    C259    C    0.93536   0.74073   0.00219   1.000
    C260    C    0.07286   0.09703   0.90145   1.000
    C261    C    0.07286   0.59702   0.90145   1.000
    C262    C    0.57285   0.09703   0.90140   1.000
    C263    C    0.57285   0.59703   0.90145   1.000
    C264    C    0.46090   0.13171   0.85615   1.000
    C265    C    0.46090   0.63171   0.85615   1.000
    C266    C    0.96090   0.13171   0.85615   1.000
    C267    C    0.96090   0.63171   0.85615   1.000
    C268    C    0.45616   0.17251   0.91671   1.000
    C269    C    0.45616   0.67251   0.91671   1.000
    C270    C    0.95616   0.17251   0.91671   1.000
    C271    C    0.95616   0.67251   0.91671   1.000
    C272    C    0.01469   0.17064   0.96597   1.000
    C273    C    0.01468   0.67064   0.96597   1.000
    C274    C    0.51468   0.17064   0.96597   1.000
    C275    C    0.51468   0.67064   0.96597   1.000
    C276    C    0.19772   0.10537   0.75485   1.000
    C277    C    0.19772   0.60537   0.75485   1.000
    C278    C    0.69770   0.10536   0.75486   1.000
    C279    C    0.69771   0.60537   0.75485   1.000
    C280    C    0.17839   0.16984   0.75131   1.000
    C281    C    0.17839   0.66984   0.75131   1.000
    C282    C    0.67840   0.16984   0.75130   1.000
    C283    C    0.67839   0.66984   0.75130   1.000
    C284    C    0.16240   0.06209   0.71051   1.000
    C285    C    0.16240   0.56209   0.71051   1.000
    C286    C    0.66239   0.06209   0.71052   1.000
    C287    C    0.66239   0.56209   0.71051   1.000
    C288    C    0.09158   0.14237   0.65919   1.000
    C289    C    0.09157   0.64237   0.65919   1.000
    C290    C    0.59157   0.14237   0.65919   1.000
    C291    C    0.59157   0.64237   0.65919   1.000
    C292    C    0.12400   0.18825   0.70257   1.000
    C293    C    0.12399   0.68825   0.70258   1.000
    C294    C    0.62399   0.18825   0.70250   1.000
    C295    C    0.62399   0.68825   0.70257   1.000
    N296    N    0.25022   0.46339   0.48023   1.000
    N297    N    0.25022   0.96339   0.48023   1.000
    N298    N    0.75021   0.46339   0.48023   1.000
    N299    N    0.75021   0.96339   0.48023   1.000
    N300    N    0.32403   0.38219   0.53974   1.000
    N301    N    0.32403   0.88219   0.53974   1.000
    N302    N    0.82402   0.38219   0.53974   1.000
    N303    N    0.82402   0.88219   0.53974   1.000
    N304    N    0.15605   0.46773   0.55937   1.000
    N305    N    0.15605   0.96773   0.55937   1.000
    N306    N    0.65604   0.46773   0.55937   1.000
    N307    N    0.65604   0.96773   0.55937   1.000
    N308    N    0.27050   0.34327   0.65057   1.000
    N309    N    0.27050   0.84327   0.65057   1.000
    N310    N    0.77050   0.34327   0.65057   1.000
    N311    N    0.77049   0.84327   0.65057   1.000
    N312    N    0.16045   0.37900   0.69833   1.000
    N313    N    0.16045   0.87900   0.69833   1.000
    N314    N    0.66044   0.37900   0.69833   1.000
    N315    N    0.66044   0.87900   0.69833   1.000
    N316    N    0.36008   0.33018   0.83682   1.000
    N317    N    0.36007   0.83018   0.83682   1.000
    N318    N    0.86007   0.33018   0.83682   1.000
    N319    N    0.86007   0.83018   0.83682   1.000
    N320    N    0.00021   0.03691   0.51992   1.000
    N321    N    0.00021   0.53691   0.51992   1.000
    N322    N    0.50021   0.03691   0.51992   1.000
    N323    N    0.50020   0.53691   0.51992   1.000
    N324    N    0.07390   0.11798   0.46038   1.000
    N325    N    0.07389   0.61798   0.46030   1.000
    N326    N    0.57389   0.11798   0.46030   1.000
    N327    N    0.57389   0.61798   0.46030   1.000
    N328    N    0.40594   0.03253   0.44068   1.000
    N329    N    0.40593   0.53253   0.44068   1.000
    N330    N    0.90593   0.03253   0.44068   1.000
    N331    N    0.90593   0.53253   0.44068   1.000
    N332    N    0.02020   0.15684   0.34946   1.000
    N333    N    0.02020   0.65684   0.34946   1.000
    N334    N    0.52019   0.15684   0.34946   1.000
    N335    N    0.52019   0.65684   0.34946   1.000
    N336    N    0.41008   0.12121   0.30164   1.000
    N337    N    0.41008   0.62121   0.30164   1.000
    N338    N    0.91008   0.12121   0.30164   1.000
    N339    N    0.91008   0.62121   0.30164   1.000
    N340    N    0.11058   0.17095   0.16288   1.000
    N341    N    0.11058   0.67095   0.16288   1.000
    N342    N    0.61058   0.17095   0.16288   1.000
    N343    N    0.61058   0.67095   0.16288   1.000
    N344    N    0.25029   0.28753   0.97992   1.000
    N345    N    0.25029   0.78753   0.97992   1.000
    N346    N    0.75028   0.28753   0.97992   1.000
    N347    N    0.75028   0.78753   0.97992   1.000
    N348    N    0.32447   0.36828   0.03934   1.000
    N349    N    0.32447   0.86828   0.03934   1.000
    N350    N    0.82447   0.36828   0.03934   1.000
    N351    N    0.82447   0.86827   0.03934   1.000
    N352    N    0.15593   0.28373   0.05890   1.000
    N353    N    0.15593   0.78373   0.05800   1.000
    N354    N    0.65592   0.28373   0.05890   1.000
    N355    N    0.65592   0.78373   0.05800   1.000
    N356    N    0.27088   0.40745   0.14991   1.000
    N357    N    0.27088   0.90744   0.14991   1.000
    N358    N    0.77088   0.40745   0.14991   1.000
    N359    N    0.77088   0.90744   0.14991   1.000
    N360    N    0.16047   0.37232   0.19747   1.000
    N361    N    0.16046   0.87232   0.19747   1.000
    N362    N    0.66046   0.37232   0.19747   1.000
    N363    N    0.66046   0.87232   0.19747   1.000
    N364    N    0.36011   0.41982   0.33729   1.000
    N365    N    0.36011   0.91982   0.33729   1.000
    N366    N    0.86011   0.41982   0.33729   1.000
    N367    N    0.86010   0.91982   0.33729   1.000
    N368    N    0.00045   0.21415   0.01997   1.000
    N369    N    0.00045   0.71415   0.01997   1.000
    N370    N    0.50045   0.21415   0.01997   1.000
    N371    N    0.50044   0.71415   0.01997   1.000
    N372    N    0.07472   0.13342   0.96070   1.000
    N373    N    0.02109   0.59409   0.85019   1.000
    N374    N    0.52109   0.09409   0.85020   1.000
    N375    N    0.52109   0.59409   0.85000   1.000
    N376    N    0.41053   0.12903   0.80243   1.000
    N377    N    0.41053   0.62903   0.80243   1.000
    N378    N    0.91053   0.12904   0.80243   1.000
    N379    N    0.91053   0.62903   0.80243   1.000
    N380    N    0.11037   0.08018   0.66305   1.000
    N381    N    0.11036   0.58017   0.66305   1.000
    N382    N    0.61037   0.08018   0.66305   1.000
    N383    N    0.61036   0.58017   0.66305   1.000
loop_
    _geom_bond_atom_site_label_1
    _geom_bond_atom_site_label_2
    _geom_bond_distance
    _geom_bond_site_symmetry_2
    _ccdc_geom_bond_type
    C256   N370      1.35303      .   S
    C256   H100      1.08685      .   S
    C256   N191      1.34766  1_554   S
    C259   N369      1.35319  1_655   S
    C259   H103      1.08684      .   S
    C259   N194      1.34766  1_554   S
    C258   N368      1.35317  1_655   S
    C258   H102      1.08686      .   S
    C258   N193      1.34765  1_554   S
    C257   N371      1.35302      .   S
    C257   H101      1.08686      .   S
    C257   N192      1.34767  1_554   S
    N369   C273      1.38223  1_554   S
    N370   C274      1.38224  1_554   S
    N371   C275      1.38226  1_554   S
    N368   C272      1.38225  1_554   S
    C240   N351      1.34924      .   S
    C240   C236      1.40718      .   S
    C240   N347      1.38254  1_554   S
    C239   N350      1.34927      .   S
    C239   C235      1.40717      .   S
    C239   N346      1.38254  1_554   S
    C238   N349      1.34926      .   S
    C238   C234      1.40717      .   S
    C238   N345      1.38254  1_554   S
    C237   N348      1.34925      .   S
    C237   C233      1.40718      .   S
    C237   N344      1.38254  1_554   S
    N348   C225      1.34216      .   S
    N351   C228      1.34216      .   S
    N350   C227      1.34216      .   S
    N349   C226      1.34216      .   S
    N353   C234      1.40144      .   S
    N353   C222      1.33374  1_554   S
    N355   C236      1.40143      .   S
    N355   C224      1.33374  1_554   S
    N352   C233      1.39592      .   S
    N352   C221      1.34787  1_554   S
    N354   C235      1.39591      .   S
    N354   C223      1.34787  1_554   S
    C234   C230      1.41760      .   S
    C233   C229      1.41760      .   S
    C235   C231      1.41762      .   S
    C236   C232      1.41760      .   S
    C225   H68       1.09290      .   S
    C225   N356      1.34337      .   S
    C226   H69       1.09289      .   S
    C226   N357      1.34336      .   S
    C228   H71       1.09123      .   S
    C228   N359      1.34337      .   S
    C227   H70       1.09290      .   S
    C227   N358      1.34336      .   S
    H56    C213      1.08922      .   S
    H57    C214      1.08933      .   S
    H58    C215      1.08934      .   S
    H59    C216      1.08934      .   S
    C229   N356      1.35737      .   S
    C229   N360      1.35833      .   S
    C230   N357      1.35738      .   S
    C230   N361      1.35833      .   S
    C231   N358      1.35736      .   S
    C231   N362      1.35834      .   S
    C232   N359      1.35736      .   S
    C232   N363      1.35833      .   S
    C213   N340      1.34935      .   S
    C213   C217      1.38891      .   S
    C214   N341      1.34934      .   S
    C214   C218      1.38891      .   S
    C215   N342      1.34935      .   S
    C215   C219      1.38888      .   S
    C216   N343      1.34935      .   S
    C216   C220      1.38889      .   S
    N342   C211      1.34872      .   S
    N343   C212      1.34972      .   S
    N340   C209      1.34974      .   S
    N341   C210      1.34975      .   S
    H76    N360      1.02451      .   S
    H79    N363      1.02453      .   S
    H77    N361      1.02453      .   S
    H78    N362      1.02451      .   S
    N363   H75       1.02773      .   S
    N362   H74       1.02773      .   S
    N361   H73       1.02773      .   S
    N360   H72       1.02773      .   S
    H60    C217      1.08844      .   S
    H61    C218      1.08843      .   S
    H62    C219      1.08844      .   S
    H63    C220      1.08843      .   S
    C217   C205      1.39764      .   S
    C219   C207      1.39521      .   S
    C218   C206      1.39753      .   S
    C220   C208      1.39761      .   S
    H83    C119      1.08783      .   S
    H82    C118      1.08778      .   S
    H81    C117      1.08721      .   S
    H80    C116      1.08777      .   S
    C211   H54       1.09038      .   S
    C211   C203      1.38691      .   S
    C209   H52       1.09035      .   S
    C209   C201      1.38605      .   S
    C210   H53       1.09034      .   S
    C210   C202      1.38607      .   S
    C212   H55       1.09036      .   S
    C212   C204      1.38603      .   S
    C117   C241      1.39775      .   S
    C117   C245      1.38618      .   S
    C118   C242      1.39774      .   S
    C118   C246      1.38566      .   S
    C116   C120      1.39776      .   S
    C116   C244      1.38566      .   S
    C119   C243      1.39776      .   S
    C119   C247      1.38559      .   S
    C241   C253      1.39845      .   S
    C243   C255      1.39722      .   S
    C120   C252      1.39755      .   S
    C242   C254      1.39755      .   S
    C207   C203      1.39816      .   S
    C205   C201      1.39797      .   S
    C206   C202      1.39795      .   S
    C208   C204      1.39797      .   S
    C203   H50       1.08784      .   S
    C201   H48       1.08777      .   S
    C202   H49       1.08777      .   S
    C204   H51       1.08783      .   S
    H43    N339      1.02769      .   S
    H42    N338      1.02769      .   S
    H41    N337      1.02769      .   S
    H40    N336      1.02769      .   S
    H90    C246      1.09042      .   S
    H89    C245      1.09026      .   S
    H88    C244      1.09026      .   S
    H91    C247      1.09027      .   S
    C247   N367      1.34982      .   S
    C246   N366      1.34970      .   S
    C245   N365      1.34968      .   S
    C244   N364      1.34974      .   S
    C255   H99       1.08850      .   S
    C255   C251      1.38905      .   S
    C252   H96       1.08846      .   S
    C252   C248      1.38881      .   S
    C253   H97       1.08835      .   S
    C253   C249      1.38878      .   S
    C254   H98       1.08848      .   S
    C254   C250      1.38880      .   S
    N339   H47       1.02487      .   S
    N339   C84       1.35837      .   S
    N338   H46       1.02487      .   S
    N338   C187      1.35837      .   S
    N337   H45       1.02485      .   S
    N337   C186      1.35837      .   S
    N336   H44       1.02487      .   S
    N336   C185      1.35837      .   S
    N366   C250      1.34939      .   S
    N365   C249      1.34940      .   S
    N364   C248      1.34939      .   S
    N367   C251      1.34941      .   S
    C248   H92       1.08931      .   S
    C249   H93       1.08930      .   S
    C250   H94       1.08931      .   S
    C251   H95       1.08933      .   S
    N335   C186      1.35740      .   S
    N335   C184      1.34316      .   S
    N334   C185      1.35740      .   S
    N334   C183      1.34250      .   S
    N333   C84       1.35756  1_455   S
    N333   C182      1.34318      .   S
    N332   C187      1.35755  1_455   S
    N332   C181      1.34316      .   S
    C187   C87       1.41689      .   S
    C185   C85       1.41777      .   S
    C186   C86       1.41689      .   S
    C84    C196      1.41778      .   S
    H39    C184      1.09290      .   S
    H38    C183      1.09278      .   S
    H37    C182      1.09290      .   S
    H36    C181      1.09290      .   S
    C183   N326      1.34157      .   S
    C184   N327      1.34081      .   S
    C182   N325      1.34080      .   S
    C181   N324      1.34202      .   S
    C86    N329      1.39670      .   S
    C86    C200      1.40797      .   S
    C87    N330      1.39670      .   S
    C87    C197      1.40812  1_655   S
    C85    N328      1.39636      .   S
    C85    C199      1.40724      .   S
    C196   N331      1.39635      .   S
    C196   C198      1.40740  1_655   S
    N331   C180      1.34782      .   S
    N330   C179      1.34783      .   S
    N329   C178      1.34782      .   S
    N328   C177      1.34782      .   S
    N327   C200      1.34937      .   S
    N326   C199      1.34936      .   S
    N325   C198      1.34938      .   S
    N324   C197      1.34928      .   S
    C200   N323      1.38224      .   S
    C199   N322      1.38225      .   S
    C198   N321      1.38224      .   S
    C197   N320      1.38223      .   S
    H2     C140      1.08741  1_545   S
    H3     C139      1.08690      .   S
    H0     C138      1.08691  1_545   S
    H1     C137      1.08690      .   S
    N296   C137      1.35321      .   S
    N296   C153      1.38239      .   S
    N297   C138      1.35322      .   S
    N297   C154      1.38238      .   S
    N298   C139      1.35322      .   S
    N298   C155      1.38238      .   S
    N299   C140      1.35322      .   S
    N299   C156      1.38237      .   S
    C140   N307      1.34780      .   S
    C138   N305      1.34781      .   S
    C137   N304      1.34781      .   S
    C139   N306      1.34781      .   S
    C179   N320      1.35330  1_655   S
    C179   H35       1.08691  1_545   S
    C180   N321      1.35328  1_655   S
    C180   H34       1.08683      .   S
    C177   N322      1.35311      .   S
    C177   H33       1.08692  1_545   S
    C178   N323      1.35312      .   S
    C178   H32       1.08683      .   S
    C153   N300      1.34923      .   S
    C153   C149      1.40613      .   S
    C154   N301      1.34924      .   S
    C154   C150      1.40613      .   S
    C155   N302      1.34923      .   S
    C155   C151      1.40613      .   S
    C156   N303      1.34923      .   S
    C156   C152      1.40613      .   S
    N300   C141      1.34201      .   S
    N303   C144      1.34200      .   S
    N302   C143      1.34201      .   S
    N301   C142      1.34200      .   S
    N305   C150      1.39570      .   S
    N307   C152      1.39570      .   S
    N304   C149      1.39570      .   S
    N306   C151      1.39570      .   S
    C149   C145      1.41890      .   S
    C150   C146      1.41890      .   S
    C151   C147      1.41890      .   S
    C152   C148      1.41889      .   S
    C144   H7        1.09289      .   S
    C144   N311      1.34332      .   S
    C143   H6        1.09289      .   S
    C143   N310      1.34330      .   S
    C142   H5        1.09289      .   S
    C142   N309      1.34330      .   S
    C141   H4        1.09290      .   S
    C141   N308      1.34330      .   S
    H129   C288      1.08939      .   S
    H132   C291      1.08938      .   S
    H130   C289      1.08929      .   S
    H131   C290      1.08924      .   S
    C146   N309      1.35736      .   S
    C146   N313      1.35846      .   S
    C147   N310      1.35737      .   S
    C147   N314      1.35846      .   S
    C148   N311      1.35737      .   S
    C148   N315      1.35846      .   S
    C145   N308      1.35735      .   S
    C145   N312      1.35846      .   S
    C291   N383      1.34940      .   S
    C291   C295      1.38866      .   S
    C288   N380      1.34941      .   S
    C288   C292      1.38868      .   S
    C289   N381      1.34942      .   S
    C289   C293      1.38878      .   S
    C290   N382      1.34941      .   S
    C290   C294      1.38785      .   S
    N383   C287      1.34976      .   S
    N382   C286      1.34975      .   S
    N381   C285      1.34981      .   S
    N380   C284      1.34982      .   S
    H13    N313      1.02481      .   S
    H14    N314      1.02481      .   S
    H15    N315      1.02482      .   S
    H12    N312      1.02482      .   S
    N312   H8        1.02771      .   S
    N313   H9        1.02772      .   S
    N315   H11       1.02772      .   S
    N314   H10       1.02771      .   S
    H135   C294      1.08837      .   S
    H136   C295      1.08847      .   S
    H133   C292      1.08843      .   S
    H134   C293      1.08844      .   S
    C294   C282      1.39855      .   S
    C295   C283      1.39754      .   S
    C292   C280      1.39761      .   S
    C293   C281      1.39756      .   S
    H16    C157      1.08783      .   S
    H17    C158      1.08782      .   S
    H18    C159      1.08783      .   S
    H19    C160      1.08783      .   S
    C285   H126      1.09031      .   S
    C285   C277      1.38592      .   S
    C284   H125      1.09029      .   S
    C284   C276      1.38593      .   S
    C287   H128      1.09030      .   S
    C287   C279      1.38592      .   S
    C286   H127      1.09032      .   S
    C286   C278      1.38586      .   S
    C157   C161      1.39775      .   S
    C157   C165      1.38530      .   S
    C160   C164      1.39774      .   S
    C160   C168      1.38573      .   S
    C158   C162      1.39772      .   S
    C158   C166      1.38530      .   S
    C159   C163      1.39774      .   S
    C159   C167      1.38585      .   S
    C162   C174      1.39772      .   S
    C164   C176      1.39748      .   S
    C163   C175      1.39748      .   S
    C161   C173      1.39747      .   S
    C283   C279      1.39778      .   S
    C282   C278      1.39777      .   S
    C280   C276      1.39777      .   S
    C281   C277      1.39777      .   S
    C276   H121      1.08782      .   S
    C277   H122      1.08786      .   S
    C279   H124      1.08785      .   S
    C278   H123      1.08783      .   S
    H111   N379      1.02755      .   S
    H110   N378      1.02755      .   S
    H109   N377      1.02755      .   S
    H108   N376      1.02755      .   S
    H20    C165      1.09027      .   S
    H21    C166      1.09027      .   S
    H22    C167      1.09030      .   S
    H23    C168      1.09028      .   S
    C165   N316      1.35027      .   S
    C166   N317      1.35030      .   S
    C168   N319      1.34979      .   S
    C167   N318      1.34968      .   S
    C173   H28       1.08842      .   S
    C173   C169      1.38224      .   S
    C176   H31       1.08842      .   S
    C176   C172      1.38857      .   S
    C175   H30       1.08841      .   S
    C175   C171      1.38857      .   S
    C174   H29       1.08841      .   S
    C174   C170      1.38858      .   S
    N376   H112      1.02483      .   S
    N376   C264      1.35847      .   S
    N377   H113      1.02483      .   S
    N377   C265      1.35850      .   S
    N378   H114      1.02482      .   S
    N378   C266      1.35849      .   S
    N379   H115      1.02484      .   S
    N379   C267      1.35847      .   S
    N316   C169      1.34873      .   S
    N317   C170      1.34928      .   S
    N318   C171      1.34930      .   S
    N319   C172      1.34928      .   S
    C169   H24       1.09681      .   S
    C172   H27       1.08935      .   S
    C171   H26       1.08937      .   S
    C170   H25       1.08935      .   S
    N375   C265      1.35764      .   S
    N375   C263      1.34581      .   S
    N373   C267      1.35751  1_455   S
    N373   C261      1.34329      .   S
    N195   C266      1.35750  1_455   S
    N195   C260      1.34329      .   S
    N374   C264      1.35733      .   S
    N374   C262      1.34250      .   S
    C267   C271      1.41768      .   S
    C266   C270      1.41768      .   S
    C265   C269      1.41769      .   S
    C264   C268      1.41769      .   S
    H107   C263      1.09287      .   S
    H105   C261      1.09287      .   S
    H106   C262      1.09275      .   S
    H104   C260      1.09287      .   S
    C262   N189      1.34285      .   S
    C260   N372      1.34132      .   S
    C261   N188      1.34132      .   S
    C263   N190      1.34194      .   S
    C268   N191      1.39627      .   S
    C268   C274      1.40732      .   S
    C269   N192      1.39627      .   S
    C269   C275      1.40733      .   S
    C271   N194      1.39625      .   S
    C271   C273      1.40746  1_655   S
    C270   N193      1.39627      .   S
    C270   C272      1.40747  1_655   S
    N372   C272      1.34927      .   S
    N188   C273      1.34928      .   S
    N190   C275      1.34920      .   S
    N189   C274      1.34921      .   S
    H64    C221      1.08696      .   S
    H66    C223      1.08696      .   S
    H67    C224      1.08687      .   S
    H65    C222      1.08687      .   S
    N346   C223      1.35319      .   S
    N347   C224      1.35319      .   S
    N345   C222      1.35318      .   S
    N344   C221      1.35318      .   S
