# CIF file generated by openbabel 2.4.90, see http://openbabel.sf.net
data_I
_chemical_name_common ''
_cell_length_a 18.27
_cell_length_b 20.957
_cell_length_c 18.59
_cell_angle_alpha 89.889
_cell_angle_beta 90.069
_cell_angle_gamma 89.959
_space_group_name_H-M_alt 'P 1'
_space_group_name_Hall 'P 1'
loop_
    _symmetry_equiv_pos_as_xyz
    x,y,z
loop_
    _atom_site_label
    _atom_site_type_symbol
    _atom_site_fract_x
    _atom_site_fract_y
    _atom_site_fract_z
    _atom_site_occupancy
    N0      N    0.72559   0.34520   0.09166   1.000
    N1      N    0.64374   0.62416   0.70643   1.000
    N2      N    0.39349   0.87588   0.29386   1.000
    N3      N    0.97525   0.09444   0.40786   1.000
    N4      N    0.22543   0.40576   0.59218   1.000
    N5      N    0.22543   0.90576   0.59218   1.000
    N6      N    0.47572   0.15632   0.90832   1.000
    N7      N    0.39349   0.37588   0.29388   1.000
    N8      N    0.14380   0.12669   0.20631   1.000
    N9      N    0.97524   0.59444   0.40786   1.000
    N10     N    0.89351   0.37421   0.79345   1.000
    N11     N    0.89348   0.87588   0.29388   1.000
    N12     N    0.89351   0.87421   0.79344   1.000
    N13     N    0.22560   0.34520   0.09166   1.000
    N14     N    0.39351   0.87421   0.79344   1.000
    N15     N    0.39351   0.37421   0.79338   1.000
    N16     N    0.72543   0.40576   0.59218   1.000
    N17     N    0.72543   0.90576   0.59218   1.000
    N18     N    0.64379   0.12669   0.20629   1.000
    N19     N    0.97572   0.15632   0.90832   1.000
    N20     N    0.14374   0.62416   0.70644   1.000
    N21     N    0.47525   0.59444   0.40785   1.000
    N22     N    0.89348   0.37588   0.29385   1.000
    N23     N    0.47572   0.65632   0.90831   1.000
    N24     N    0.64374   0.12416   0.70643   1.000
    N25     N    0.22560   0.84520   0.09160   1.000
    N26     N    0.97571   0.65632   0.90832   1.000
    N27     N    0.14375   0.12416   0.70644   1.000
    N28     N    0.14379   0.62669   0.20631   1.000
    N29     N    0.72559   0.84520   0.09155   1.000
    N30     N    0.64379   0.62669   0.20631   1.000
    N31     N    0.47525   0.09444   0.40785   1.000
    Zr32    Zr   0.49722   0.98741   0.66477   1.000
    O33     O    0.50065   0.02330   0.57427   1.000
    O34     O    0.58268   0.96749   0.62528   1.000
    O35     O    0.55655   0.03614   0.66681   1.000
    O36     O    0.45852   0.94830   0.71182   1.000
    Zr37    Zr   0.99707   0.76334   0.16484   1.000
    O38     O    0.00074   0.72759   0.07441   1.000
    O39     O    0.05652   0.71478   0.16677   1.000
    O40     O    0.08264   0.78351   0.12498   1.000
    O41     O    0.95839   0.80217   0.21204   1.000
    Zr42    Zr   0.49722   0.48741   0.66479   1.000
    O43     O    0.58268   0.46749   0.62529   1.000
    O44     O    0.50065   0.52330   0.57428   1.000
    O45     O    0.55655   0.53614   0.66681   1.000
    O46     O    0.45852   0.44830   0.71182   1.000
    Zr47    Zr   0.49707   0.76335   0.16484   1.000
    O48     O    0.45840   0.80217   0.21202   1.000
    O49     O    0.58264   0.78351   0.12497   1.000
    O50     O    0.50073   0.72759   0.07441   1.000
    O51     O    0.55652   0.71478   0.16677   1.000
    Zr52    Zr   0.74709   0.01290   0.33519   1.000
    O53     O    0.75062   0.97695   0.42575   1.000
    O54     O    0.83254   0.03276   0.37473   1.000
    O55     O    0.80637   0.96403   0.33331   1.000
    O56     O    0.70852   0.05221   0.28802   1.000
    Zr57    Zr   0.74713   0.73727   0.83529   1.000
    O58     O    0.70855   0.69819   0.78816   1.000
    O59     O    0.75069   0.77350   0.92560   1.000
    O60     O    0.80639   0.78609   0.83318   1.000
    O61     O    0.83267   0.71757   0.87493   1.000
    Zr62    Zr   0.24709   0.51290   0.33519   1.000
    O63     O    0.33254   0.53276   0.37473   1.000
    O64     O    0.30638   0.46403   0.33331   1.000
    O65     O    0.25063   0.47695   0.42575   1.000
    O66     O    0.20852   0.55221   0.28805   1.000
    Zr67    Zr   0.24714   0.23728   0.83529   1.000
    O68     O    0.33267   0.21757   0.87493   1.000
    O69     O    0.30639   0.28609   0.83317   1.000
    O70     O    0.25069   0.27351   0.92563   1.000
    O71     O    0.20856   0.19819   0.78816   1.000
    Zr72    Zr   0.24709   0.01290   0.33519   1.000
    O73     O    0.30638   0.96403   0.33331   1.000
    O74     O    0.25063   0.97695   0.42575   1.000
    O75     O    0.33254   0.03276   0.37473   1.000
    O76     O    0.20852   0.05221   0.28805   1.000
    Zr77    Zr   0.99707   0.26335   0.16484   1.000
    O78     O    0.08264   0.28351   0.12511   1.000
    O79     O    0.05653   0.21479   0.16677   1.000
    O80     O    0.00074   0.22759   0.07441   1.000
    O81     O    0.95840   0.30217   0.21203   1.000
    Zr82    Zr   0.99722   0.98741   0.66477   1.000
    O83     O    0.00065   0.02330   0.57427   1.000
    O84     O    0.05655   0.03614   0.66681   1.000
    O85     O    0.08268   0.96749   0.62528   1.000
    O86     O    0.95852   0.94830   0.71182   1.000
    Zr87    Zr   0.99722   0.48741   0.66477   1.000
    O88     O    0.95852   0.44830   0.71182   1.000
    O89     O    0.05655   0.53614   0.66681   1.000
    O90     O    0.00065   0.52330   0.57427   1.000
    O91     O    0.08268   0.46749   0.62528   1.000
    Zr92    Zr   0.74709   0.51290   0.33517   1.000
    O93     O    0.80637   0.46403   0.33330   1.000
    O94     O    0.83254   0.53276   0.37472   1.000
    O95     O    0.75062   0.47695   0.42575   1.000
    O96     O    0.70852   0.55221   0.28804   1.000
    Zr97    Zr   0.74713   0.23727   0.83529   1.000
    O98     O    0.70855   0.19819   0.78816   1.000
    O99     O    0.75069   0.27351   0.92563   1.000
    O100    O    0.80639   0.28609   0.83319   1.000
    O101    O    0.83267   0.21757   0.87493   1.000
    Zr102   Zr   0.24714   0.73727   0.83529   1.000
    O103    O    0.20855   0.69819   0.78816   1.000
    O104    O    0.30639   0.78609   0.83318   1.000
    O105    O    0.33267   0.71757   0.87492   1.000
    O106    O    0.25069   0.77350   0.92561   1.000
    Zr107   Zr   0.49707   0.26335   0.16484   1.000
    O108    O    0.45840   0.30217   0.21204   1.000
    O109    O    0.55652   0.21479   0.16677   1.000
    O110    O    0.50074   0.22759   0.07441   1.000
    O111    O    0.58264   0.28351   0.12511   1.000
loop_
    _geom_bond_atom_site_label_1
    _geom_bond_atom_site_label_2
    _geom_bond_distance
    _geom_bond_site_symmetry_2
    _ccdc_geom_bond_type
    Zr32   O33       1.84275  1_565   S
    N31    O33       3.46217      .   S
    Zr32   O34       1.77594      .   S
    N17    O34       2.97593      .   S
    Zr32   O35       1.49036  1_565   S
    N24    O35       2.54748      .   S
    Zr32   O36       1.39143      .   S
    N14    O36       2.47423      .   S
    Zr37   O38       1.84307  1_655   S
    N26    O38       3.46246  1_656   S
    Zr37   O39       1.48829  1_655   S
    N28    O39       2.54534      .   S
    Zr37   O40       1.78165  1_655   S
    N25    O40       2.98058      .   S
    Zr37   O41       1.39091      .   S
    N11    O41       2.47350      .   S
    Zr42   O43       1.77599      .   S
    N16    O43       2.97596      .   S
    Zr42   O44       1.84287      .   S
    N21    O44       3.46230      .   S
    Zr42   O45       1.49035      .   S
    N1     O45       2.54748      .   S
    Zr42   O46       1.39127      .   S
    N15    O46       2.47352      .   S
    Zr47   O48       1.39071      .   S
    N2     O48       2.47343      .   S
    Zr47   O49       1.78172      .   S
    N29    O49       2.98069      .   S
    Zr47   O50       1.84311      .   S
    N23    O50       3.46260  1_556   S
    Zr47   O51       1.48827      .   S
    N30    O51       2.54532      .   S
    Zr52   O53       1.84417  1_545   S
    N17    O53       3.46347      .   S
    Zr52   O54       1.77492      .   S
    N3     O54       2.97525      .   S
    Zr52   O55       1.49058  1_545   S
    N11    O55       2.54698      .   S
    Zr52   O56       1.39253      .   S
    N18    O56       2.47535      .   S
    Zr57   O58       1.39190      .   S
    N1     O58       2.47478      .   S
    Zr57   O59       1.84504      .   S
    N29    O59       3.46491  1_554   S
    Zr57   O60       1.49050      .   S
    N12    O60       2.54778      .   S
    Zr57   O61       1.77505      .   S
    N26    O61       2.97518      .   S
    Zr62   O63       1.77488      .   S
    N21    O63       2.97514      .   S
    Zr62   O64       1.49056      .   S
    N7     O64       2.54693      .   S
    Zr62   O65       1.84417      .   S
    N4     O65       3.46351      .   S
    Zr62   O66       1.39216      .   S
    N28    O66       2.47539      .   S
    Zr67   O68       1.77504      .   S
    N6     O68       2.97513      .   S
    Zr67   O69       1.49050      .   S
    N15    O69       2.54804      .   S
    Zr67   O70       1.84552      .   S
    N13    O70       3.46631  1_554   S
    Zr67   O71       1.39188      .   S
    N27    O71       2.47474      .   S
    Zr72   O73       1.49057  1_545   S
    N2     O73       2.54701      .   S
    Zr72   O74       1.84418  1_545   S
    N5     O74       3.46352      .   S
    Zr72   O75       1.77489      .   S
    N31    O75       2.97517      .   S
    Zr72   O76       1.39216      .   S
    N8     O76       2.47540      .   S
    Zr77   O78       1.78067  1_655   S
    N13    O78       2.98084      .   S
    Zr77   O79       1.48831  1_655   S
    N8     O79       2.54536      .   S
    Zr77   O80       1.84307  1_655   S
    N19    O80       3.46246  1_656   S
    Zr77   O81       1.39081      .   S
    N22    O81       2.47327      .   S
    Zr82   O83       1.84273  1_665   S
    N3     O83       3.46210  1_655   S
    Zr82   O84       1.49041  1_665   S
    N27    O84       2.54761      .   S
    Zr82   O85       1.77597  1_655   S
    N5     O85       2.97596      .   S
    Zr82   O86       1.39150      .   S
    N12    O86       2.47428      .   S
    Zr87   O88       1.39148      .   S
    N10    O88       2.47426      .   S
    Zr87   O89       1.49037  1_655   S
    N20    O89       2.54756      .   S
    Zr87   O90       1.84273  1_655   S
    N9     O90       3.46212  1_655   S
    Zr87   O91       1.77598  1_655   S
    N4     O91       2.97597      .   S
    Zr92   O93       1.49058      .   S
    N22    O93       2.54702      .   S
    Zr92   O94       1.77497      .   S
    N9     O94       2.97524      .   S
    Zr92   O95       1.84432      .   S
    N16    O95       3.46366      .   S
    Zr92   O96       1.39208      .   S
    N30    O96       2.47528      .   S
    Zr97   O98       1.39191      .   S
    N24    O98       2.47486      .   S
    Zr97   O99       1.84550      .   S
    N0     O99       3.46629  1_554   S
    Zr97   O100      1.49051      .   S
    N10    O100      2.54780      .   S
    Zr97   O101      1.77506      .   S
    N19    O101      2.97520      .   S
    Zr102  O103      1.39187      .   S
    N20    O103      2.47474      .   S
    Zr102  O104      1.49050      .   S
    N14    O104      2.54780      .   S
    Zr102  O105      1.77502      .   S
    N23    O105      2.97510      .   S
    Zr102  O106      1.84525      .   S
    N25    O106      3.46552  1_554   S
    Zr107  O108      1.39089      .   S
    N7     O108      2.47351      .   S
    Zr107  O109      1.48827      .   S
    N18    O109      2.54520      .   S
    Zr107  O110      1.84307      .   S
    N6     O110      3.46246  1_556   S
    Zr107  O111      1.78063      .   S
    N0     O111      2.98079      .   S
