# CIF file generated by openbabel 2.4.90, see http://openbabel.sf.net
data_I
_chemical_name_common ''
_cell_length_a 18.27
_cell_length_b 20.957
_cell_length_c 18.59
_cell_angle_alpha 89.889
_cell_angle_beta 90.069
_cell_angle_gamma 89.959
_space_group_name_H-M_alt 'P 1'
_space_group_name_Hall 'P 1'
loop_
    _symmetry_equiv_pos_as_xyz
    x,y,z
loop_
    _atom_site_label
    _atom_site_type_symbol
    _atom_site_fract_x
    _atom_site_fract_y
    _atom_site_fract_z
    _atom_site_occupancy
    C0      C    0.06566   0.01101   0.59946   1.000
    C1      C    0.06565   0.51101   0.59946   1.000
    C2      C    0.56565   0.01101   0.59946   1.000
    C3      C    0.56565   0.51101   0.59946   1.000
    C4      C    0.31555   0.48908   0.40068   1.000
    C5      C    0.31555   0.98907   0.40068   1.000
    C6      C    0.81555   0.48908   0.40068   1.000
    C7      C    0.81554   0.98907   0.40068   1.000
    C8      C    0.06574   0.24057   0.09932   1.000
    C9      C    0.06574   0.74056   0.09932   1.000
    C10     C    0.56573   0.24056   0.09932   1.000
    C11     C    0.56573   0.74056   0.09932   1.000
    C12     C    0.31550   0.26101   0.90062   1.000
    C13     C    0.31549   0.76101   0.90062   1.000
    C14     C    0.81549   0.26101   0.90062   1.000
    C15     C    0.81549   0.76101   0.90062   1.000
    C16     C    0.15995   0.02824   0.46665   1.000
    C17     C    0.15994   0.52824   0.46665   1.000
    C18     C    0.65994   0.02824   0.46660   1.000
    C19     C    0.65994   0.52824   0.46665   1.000
    C20     C    0.36878   0.31397   0.60722   1.000
    C21     C    0.36878   0.81397   0.60722   1.000
    C22     C    0.86877   0.31397   0.60722   1.000
    C23     C    0.86877   0.81397   0.60722   1.000
    C24     C    0.16795   0.34443   0.73693   1.000
    C25     C    0.16795   0.84443   0.73693   1.000
    C26     C    0.66795   0.34443   0.73693   1.000
    C27     C    0.66794   0.84443   0.73693   1.000
    C28     C    0.10965   0.39891   0.69159   1.000
    C29     C    0.10965   0.89891   0.69159   1.000
    C30     C    0.60964   0.39891   0.69159   1.000
    C31     C    0.60964   0.89891   0.69159   1.000
    C32     C    0.48917   0.33949   0.70757   1.000
    C33     C    0.48917   0.83949   0.70757   1.000
    C34     C    0.98917   0.33949   0.70757   1.000
    C35     C    0.98916   0.83949   0.70757   1.000
    C36     C    0.42506   0.26136   0.78781   1.000
    C37     C    0.42506   0.76136   0.78781   1.000
    C38     C    0.92506   0.26136   0.78781   1.000
    C39     C    0.92506   0.76136   0.78781   1.000
    C40     C    0.29980   0.40459   0.88016   1.000
    C41     C    0.29979   0.90459   0.88016   1.000
    C42     C    0.79979   0.40459   0.88016   1.000
    C43     C    0.79979   0.90459   0.88016   1.000
    C44     C    0.35802   0.48826   0.80108   1.000
    C45     C    0.35802   0.98826   0.80108   1.000
    C46     C    0.85802   0.48826   0.80108   1.000
    C47     C    0.85802   0.98826   0.80108   1.000
    C48     C    0.41001   0.47214   0.53350   1.000
    C49     C    0.41001   0.97214   0.53350   1.000
    C50     C    0.91000   0.47214   0.53350   1.000
    C51     C    0.91000   0.97214   0.53350   1.000
    C52     C    0.11853   0.18608   0.39285   1.000
    C53     C    0.11853   0.68608   0.39285   1.000
    C54     C    0.61853   0.18608   0.39285   1.000
    C55     C    0.61853   0.68608   0.39285   1.000
    C56     C    0.41758   0.15570   0.26298   1.000
    C57     C    0.41757   0.65570   0.26298   1.000
    C58     C    0.91757   0.15570   0.26298   1.000
    C59     C    0.91757   0.65570   0.26298   1.000
    C60     C    0.35934   0.10125   0.30829   1.000
    C61     C    0.35934   0.60125   0.30829   1.000
    C62     C    0.85934   0.10125   0.30829   1.000
    C63     C    0.85933   0.60125   0.30829   1.000
    C64     C    0.23966   0.16084   0.29241   1.000
    C65     C    0.23965   0.66083   0.29241   1.000
    C66     C    0.73965   0.16084   0.29241   1.000
    C67     C    0.73965   0.66083   0.29241   1.000
    C68     C    0.17601   0.23935   0.21209   1.000
    C69     C    0.17601   0.73934   0.21209   1.000
    C70     C    0.67600   0.23935   0.21209   1.000
    C71     C    0.67601   0.73934   0.21209   1.000
    C72     C    0.04986   0.09689   0.11943   1.000
    C73     C    0.04986   0.59689   0.11943   1.000
    C74     C    0.54985   0.09689   0.11943   1.000
    C75     C    0.54985   0.59689   0.11943   1.000
    C76     C    0.10766   0.01285   0.19847   1.000
    C77     C    0.10765   0.51285   0.19847   1.000
    C78     C    0.60765   0.01285   0.19847   1.000
    C79     C    0.60765   0.51285   0.19847   1.000
    C80     C    0.15963   0.22325   0.96640   1.000
    C81     C    0.15963   0.72325   0.96641   1.000
    C82     C    0.65963   0.22325   0.96640   1.000
    C83     C    0.65962   0.72325   0.96641   1.000
    C84     C    0.36945   0.43620   0.10669   1.000
    C85     C    0.36944   0.93619   0.10669   1.000
    C86     C    0.86944   0.43620   0.10669   1.000
    C87     C    0.86944   0.93619   0.10600   1.000
    C88     C    0.16809   0.40661   0.23620   1.000
    C89     C    0.16809   0.90661   0.23620   1.000
    C90     C    0.66809   0.40661   0.23620   1.000
    C91     C    0.66809   0.90661   0.23620   1.000
    C92     C    0.10977   0.35225   0.19098   1.000
    C93     C    0.10977   0.85225   0.19098   1.000
    C94     C    0.60977   0.35225   0.19098   1.000
    C95     C    0.60977   0.85225   0.19098   1.000
    C96     C    0.48912   0.41075   0.20798   1.000
    C97     C    0.48912   0.91074   0.20798   1.000
    C98     C    0.98911   0.41075   0.20798   1.000
    C99     C    0.98911   0.91074   0.20798   1.000
    C100    C    0.42518   0.48868   0.28830   1.000
    C101    C    0.42517   0.98868   0.28829   1.000
    C102    C    0.92517   0.48868   0.28800   1.000
    C103    C    0.92517   0.98867   0.28830   1.000
    C104    C    0.29980   0.34535   0.38064   1.000
    C105    C    0.29980   0.84535   0.38064   1.000
    C106    C    0.79980   0.34535   0.38064   1.000
    C107    C    0.79980   0.84535   0.38064   1.000
    C108    C    0.35788   0.26187   0.30148   1.000
    C109    C    0.35789   0.76186   0.30140   1.000
    C110    C    0.85788   0.26186   0.30149   1.000
    C111    C    0.85788   0.76186   0.30148   1.000
    C112    C    0.40968   0.27840   0.03337   1.000
    C113    C    0.40968   0.77840   0.03337   1.000
    C114    C    0.90968   0.27840   0.03337   1.000
    C115    C    0.90968   0.77840   0.03337   1.000
    C116    C    0.11981   0.06548   0.89354   1.000
    C117    C    0.11980   0.56547   0.89354   1.000
    C118    C    0.61980   0.06548   0.89354   1.000
    C119    C    0.61980   0.56548   0.89354   1.000
    C120    C    0.41825   0.09464   0.76385   1.000
    C121    C    0.41825   0.59464   0.76385   1.000
    C122    C    0.91825   0.09464   0.76385   1.000
    C123    C    0.91824   0.59464   0.76385   1.000
    C124    C    0.35967   0.14883   0.80899   1.000
    C125    C    0.35967   0.64882   0.80899   1.000
    C126    C    0.85967   0.14883   0.80899   1.000
    C127    C    0.85967   0.64882   0.80899   1.000
    C128    C    0.23956   0.08939   0.79249   1.000
    C129    C    0.23956   0.58939   0.79249   1.000
    C130    C    0.73955   0.08939   0.79249   1.000
    C131    C    0.73955   0.58939   0.79249   1.000
    C132    C    0.17561   0.01137   0.71221   1.000
    C133    C    0.17561   0.51137   0.71221   1.000
    C134    C    0.67559   0.01137   0.71223   1.000
    C135    C    0.67560   0.51137   0.71220   1.000
    C136    C    0.04988   0.15461   0.61955   1.000
    C137    C    0.04987   0.65460   0.61956   1.000
    C138    C    0.54987   0.15461   0.61956   1.000
    C139    C    0.54988   0.65461   0.61955   1.000
    C140    C    0.10796   0.23817   0.69864   1.000
    C141    C    0.10795   0.73816   0.69864   1.000
    C142    C    0.60796   0.23817   0.69860   1.000
    C143    C    0.60795   0.73817   0.69860   1.000
    C144    C    0.18546   0.49044   0.49800   1.000
    C145    C    0.18546   0.99044   0.49800   1.000
    C146    C    0.68545   0.49044   0.49800   1.000
    C147    C    0.68545   0.99044   0.49800   1.000
    C148    C    0.32209   0.34584   0.59922   1.000
    C149    C    0.32209   0.84584   0.59922   1.000
    C150    C    0.82208   0.34584   0.59922   1.000
    C151    C    0.82208   0.84584   0.59922   1.000
    C152    C    0.21063   0.38131   0.64453   1.000
    C153    C    0.21063   0.88131   0.64453   1.000
    C154    C    0.71063   0.38131   0.64453   1.000
    C155    C    0.71063   0.88131   0.64453   1.000
    C156    C    0.20602   0.42212   0.58370   1.000
    C157    C    0.20602   0.92212   0.58370   1.000
    C158    C    0.70602   0.42212   0.58370   1.000
    C159    C    0.70602   0.92212   0.58370   1.000
    C160    C    0.26431   0.41982   0.53444   1.000
    C161    C    0.26430   0.91982   0.53444   1.000
    C162    C    0.76430   0.41982   0.53444   1.000
    C163    C    0.76430   0.91982   0.53444   1.000
    C164    C    0.46402   0.46844   0.70006   1.000
    C165    C    0.46401   0.96843   0.70000   1.000
    C166    C    0.96401   0.46844   0.70000   1.000
    C167    C    0.96401   0.96843   0.70000   1.000
    C168    C    0.44740   0.35543   0.74513   1.000
    C169    C    0.44740   0.85543   0.74513   1.000
    C170    C    0.94740   0.35543   0.74513   1.000
    C171    C    0.94739   0.85543   0.74513   1.000
    C172    C    0.42825   0.41994   0.74862   1.000
    C173    C    0.42824   0.91993   0.74860   1.000
    C174    C    0.92824   0.41993   0.74862   1.000
    C175    C    0.92824   0.91993   0.74862   1.000
    C176    C    0.41200   0.31211   0.78940   1.000
    C177    C    0.41200   0.81211   0.78940   1.000
    C178    C    0.91200   0.31211   0.78945   1.000
    C179    C    0.91200   0.81211   0.78944   1.000
    C180    C    0.34143   0.39239   0.84000   1.000
    C181    C    0.34142   0.89239   0.84059   1.000
    C182    C    0.84142   0.39239   0.84059   1.000
    C183    C    0.84142   0.89239   0.84059   1.000
    C184    C    0.37392   0.43832   0.79722   1.000
    C185    C    0.37392   0.93832   0.79722   1.000
    C186    C    0.87391   0.43832   0.79722   1.000
    C187    C    0.87391   0.93832   0.79722   1.000
    C188    C    0.43545   0.00988   0.50212   1.000
    C189    C    0.43545   0.50988   0.50212   1.000
    C190    C    0.93544   0.00988   0.50212   1.000
    C191    C    0.93544   0.50988   0.50212   1.000
    C192    C    0.07186   0.15427   0.40085   1.000
    C193    C    0.07186   0.65427   0.40085   1.000
    C194    C    0.57186   0.15427   0.40080   1.000
    C195    C    0.57186   0.65427   0.40085   1.000
    C196    C    0.46035   0.11886   0.35548   1.000
    C197    C    0.46035   0.61886   0.35548   1.000
    C198    C    0.96035   0.11886   0.35548   1.000
    C199    C    0.96034   0.61886   0.35548   1.000
    C200    C    0.45584   0.07809   0.41626   1.000
    C201    C    0.45584   0.57809   0.41620   1.000
    C202    C    0.95584   0.07809   0.41620   1.000
    C203    C    0.95584   0.57809   0.41626   1.000
    C204    C    0.01420   0.08040   0.46567   1.000
    C205    C    0.01420   0.58040   0.46567   1.000
    C206    C    0.51419   0.08041   0.46567   1.000
    C207    C    0.51419   0.58040   0.46567   1.000
    C208    C    0.21391   0.03200   0.29982   1.000
    C209    C    0.21391   0.53199   0.29982   1.000
    C210    C    0.71391   0.03200   0.29981   1.000
    C211    C    0.71391   0.53199   0.29980   1.000
    C212    C    0.19779   0.14512   0.25476   1.000
    C213    C    0.19779   0.64512   0.25476   1.000
    C214    C    0.69778   0.14513   0.25476   1.000
    C215    C    0.69778   0.64512   0.25476   1.000
    C216    C    0.17832   0.08071   0.25120   1.000
    C217    C    0.17831   0.58071   0.25120   1.000
    C218    C    0.67831   0.08071   0.25100   1.000
    C219    C    0.67831   0.58071   0.25120   1.000
    C220    C    0.16264   0.18867   0.21038   1.000
    C221    C    0.16263   0.68867   0.21038   1.000
    C222    C    0.66263   0.18868   0.21030   1.000
    C223    C    0.66263   0.68867   0.21038   1.000
    C224    C    0.09160   0.10884   0.15905   1.000
    C225    C    0.09159   0.60884   0.15906   1.000
    C226    C    0.59159   0.10884   0.15906   1.000
    C227    C    0.59159   0.60884   0.15906   1.000
    C228    C    0.12386   0.06269   0.20245   1.000
    C229    C    0.12386   0.56268   0.20246   1.000
    C230    C    0.62385   0.06269   0.20246   1.000
    C231    C    0.62385   0.56268   0.20246   1.000
    C232    C    0.18531   0.26088   0.99766   1.000
    C233    C    0.18531   0.76088   0.99766   1.000
    C234    C    0.68530   0.26088   0.99766   1.000
    C235    C    0.68530   0.76088   0.99766   1.000
    C236    C    0.32258   0.40461   0.09869   1.000
    C237    C    0.32258   0.90460   0.09869   1.000
    C238    C    0.82258   0.40460   0.09869   1.000
    C239    C    0.82258   0.90460   0.09869   1.000
    C240    C    0.21082   0.36975   0.14385   1.000
    C241    C    0.21082   0.86975   0.14385   1.000
    C242    C    0.71081   0.36975   0.14385   1.000
    C243    C    0.71081   0.86975   0.14385   1.000
    C244    C    0.20614   0.32901   0.08323   1.000
    C245    C    0.20614   0.82901   0.08323   1.000
    C246    C    0.70614   0.32901   0.08323   1.000
    C247    C    0.70614   0.82901   0.08323   1.000
    C248    C    0.26455   0.33099   0.03400   1.000
    C249    C    0.26454   0.83099   0.03400   1.000
    C250    C    0.76454   0.33099   0.03400   1.000
    C251    C    0.76454   0.83099   0.03400   1.000
    C252    C    0.46380   0.28195   0.20023   1.000
    C253    C    0.46380   0.78195   0.20023   1.000
    C254    C    0.96380   0.28195   0.20023   1.000
    C255    C    0.96379   0.78195   0.20023   1.000
    C256    C    0.44736   0.39473   0.24555   1.000
    C257    C    0.44735   0.89473   0.24550   1.000
    C258    C    0.94735   0.39473   0.24555   1.000
    C259    C    0.94736   0.89473   0.24556   1.000
    C260    C    0.42813   0.33026   0.24897   1.000
    C261    C    0.42813   0.83025   0.24890   1.000
    C262    C    0.92813   0.33026   0.24897   1.000
    C263    C    0.92812   0.83025   0.24897   1.000
    C264    C    0.41205   0.43795   0.28991   1.000
    C265    C    0.41204   0.93795   0.28991   1.000
    C266    C    0.91204   0.43795   0.28991   1.000
    C267    C    0.91204   0.93795   0.28991   1.000
    C268    C    0.34141   0.35762   0.34105   1.000
    C269    C    0.34141   0.85762   0.34105   1.000
    C270    C    0.84141   0.35762   0.34105   1.000
    C271    C    0.84141   0.85762   0.34105   1.000
    C272    C    0.37383   0.31179   0.29762   1.000
    C273    C    0.37383   0.81178   0.29762   1.000
    C274    C    0.87383   0.31178   0.29762   1.000
    C275    C    0.87383   0.81178   0.29760   1.000
    C276    C    0.43537   0.24074   0.00219   1.000
    C277    C    0.43537   0.74074   0.00219   1.000
    C278    C    0.93536   0.24074   0.00219   1.000
    C279    C    0.93536   0.74073   0.00219   1.000
    C280    C    0.07286   0.09703   0.90145   1.000
    C281    C    0.07286   0.59702   0.90145   1.000
    C282    C    0.57285   0.09703   0.90140   1.000
    C283    C    0.57285   0.59703   0.90145   1.000
    C284    C    0.46090   0.13171   0.85615   1.000
    C285    C    0.46090   0.63171   0.85615   1.000
    C286    C    0.96090   0.13171   0.85615   1.000
    C287    C    0.96090   0.63171   0.85615   1.000
    C288    C    0.45616   0.17251   0.91671   1.000
    C289    C    0.45616   0.67251   0.91671   1.000
    C290    C    0.95616   0.17251   0.91671   1.000
    C291    C    0.95616   0.67251   0.91671   1.000
    C292    C    0.01469   0.17064   0.96597   1.000
    C293    C    0.01468   0.67064   0.96597   1.000
    C294    C    0.51468   0.17064   0.96597   1.000
    C295    C    0.51468   0.67064   0.96597   1.000
    C296    C    0.21400   0.21827   0.79996   1.000
    C297    C    0.21400   0.71827   0.79996   1.000
    C298    C    0.71400   0.21827   0.79996   1.000
    C299    C    0.71400   0.71827   0.79996   1.000
    C300    C    0.19772   0.10537   0.75485   1.000
    C301    C    0.19772   0.60537   0.75485   1.000
    C302    C    0.69770   0.10536   0.75486   1.000
    C303    C    0.69771   0.60537   0.75485   1.000
    C304    C    0.17839   0.16984   0.75131   1.000
    C305    C    0.17839   0.66984   0.75131   1.000
    C306    C    0.67840   0.16984   0.75130   1.000
    C307    C    0.67839   0.66984   0.75130   1.000
    C308    C    0.16240   0.06209   0.71051   1.000
    C309    C    0.16240   0.56209   0.71051   1.000
    C310    C    0.66239   0.06209   0.71052   1.000
    C311    C    0.66239   0.56209   0.71051   1.000
    C312    C    0.09158   0.14237   0.65919   1.000
    C313    C    0.09157   0.64237   0.65919   1.000
    C314    C    0.59157   0.14237   0.65919   1.000
    C315    C    0.59157   0.64237   0.65919   1.000
    C316    C    0.12400   0.18825   0.70257   1.000
    C317    C    0.12399   0.68825   0.70258   1.000
    C318    C    0.62399   0.18825   0.70250   1.000
    C319    C    0.62399   0.68825   0.70257   1.000
    C320    C    0.25022   0.46339   0.48023   1.000
    C321    C    0.25022   0.96339   0.48023   1.000
    C322    C    0.75021   0.46339   0.48023   1.000
    C323    C    0.75021   0.96339   0.48023   1.000
    C324    C    0.32403   0.38219   0.53974   1.000
    C325    C    0.32403   0.88219   0.53974   1.000
    C326    C    0.82402   0.38219   0.53974   1.000
    C327    C    0.82402   0.88219   0.53974   1.000
    C328    C    0.15605   0.46773   0.55937   1.000
    C329    C    0.15605   0.96773   0.55937   1.000
    C330    C    0.65604   0.46773   0.55937   1.000
    C331    C    0.65604   0.96773   0.55937   1.000
    C332    C    0.27050   0.34327   0.65057   1.000
    C333    C    0.27050   0.84327   0.65057   1.000
    C334    C    0.77050   0.34327   0.65057   1.000
    C335    C    0.77049   0.84327   0.65057   1.000
    C336    C    0.16045   0.37900   0.69833   1.000
    C337    C    0.16045   0.87900   0.69833   1.000
    C338    C    0.66044   0.37900   0.69833   1.000
    C339    C    0.66044   0.87900   0.69833   1.000
    C340    C    0.36008   0.33018   0.83682   1.000
    C341    C    0.36007   0.83018   0.83682   1.000
    C342    C    0.86007   0.33018   0.83682   1.000
    C343    C    0.86007   0.83018   0.83682   1.000
    C344    C    0.00021   0.03691   0.51992   1.000
    C345    C    0.00021   0.53691   0.51992   1.000
    C346    C    0.50021   0.03691   0.51992   1.000
    C347    C    0.50020   0.53691   0.51992   1.000
    C348    C    0.07390   0.11798   0.46038   1.000
    C349    C    0.07389   0.61798   0.46030   1.000
    C350    C    0.57389   0.11798   0.46030   1.000
    C351    C    0.57389   0.61798   0.46030   1.000
    C352    C    0.40594   0.03253   0.44068   1.000
    C353    C    0.40593   0.53253   0.44068   1.000
    C354    C    0.90593   0.03253   0.44068   1.000
    C355    C    0.90593   0.53253   0.44068   1.000
    C356    C    0.02020   0.15684   0.34946   1.000
    C357    C    0.02020   0.65684   0.34946   1.000
    C358    C    0.52019   0.15684   0.34946   1.000
    C359    C    0.52019   0.65684   0.34946   1.000
    C360    C    0.41008   0.12121   0.30164   1.000
    C361    C    0.41008   0.62121   0.30164   1.000
    C362    C    0.91008   0.12121   0.30164   1.000
    C363    C    0.91008   0.62121   0.30164   1.000
    C364    C    0.11058   0.17095   0.16288   1.000
    C365    C    0.11058   0.67095   0.16288   1.000
    C366    C    0.61058   0.17095   0.16288   1.000
    C367    C    0.61058   0.67095   0.16288   1.000
    C368    C    0.25029   0.28753   0.97992   1.000
    C369    C    0.25029   0.78753   0.97992   1.000
    C370    C    0.75028   0.28753   0.97992   1.000
    C371    C    0.75028   0.78753   0.97992   1.000
    C372    C    0.32447   0.36828   0.03934   1.000
    C373    C    0.32447   0.86828   0.03934   1.000
    C374    C    0.82447   0.36828   0.03934   1.000
    C375    C    0.82447   0.86827   0.03934   1.000
    C376    C    0.15593   0.28373   0.05890   1.000
    C377    C    0.15593   0.78373   0.05800   1.000
    C378    C    0.65592   0.28373   0.05890   1.000
    C379    C    0.65592   0.78373   0.05800   1.000
    C380    C    0.27088   0.40745   0.14991   1.000
    C381    C    0.27088   0.90744   0.14991   1.000
    C382    C    0.77088   0.40745   0.14991   1.000
    C383    C    0.77088   0.90744   0.14991   1.000
    C384    C    0.16047   0.37232   0.19747   1.000
    C385    C    0.16046   0.87232   0.19747   1.000
    C386    C    0.66046   0.37232   0.19747   1.000
    C387    C    0.66046   0.87232   0.19747   1.000
    C388    C    0.36011   0.41982   0.33729   1.000
    C389    C    0.36011   0.91982   0.33729   1.000
    C390    C    0.86011   0.41982   0.33729   1.000
    C391    C    0.86010   0.91982   0.33729   1.000
    C392    C    0.00045   0.21415   0.01997   1.000
    C393    C    0.00045   0.71415   0.01997   1.000
    C394    C    0.50045   0.21415   0.01997   1.000
    C395    C    0.50044   0.71415   0.01997   1.000
    C396    C    0.07472   0.13342   0.96070   1.000
    C397    C    0.07472   0.63341   0.96070   1.000
    C398    C    0.57471   0.13341   0.96075   1.000
    C399    C    0.57471   0.63341   0.96074   1.000
    C400    C    0.40589   0.21779   0.94100   1.000
    C401    C    0.40589   0.71779   0.94100   1.000
    C402    C    0.90589   0.21779   0.94100   1.000
    C403    C    0.90588   0.71779   0.94100   1.000
    C404    C    0.02109   0.09409   0.85019   1.000
    C405    C    0.02109   0.59409   0.85019   1.000
    C406    C    0.52109   0.09409   0.85020   1.000
    C407    C    0.52109   0.59409   0.85000   1.000
    C408    C    0.41053   0.12903   0.80243   1.000
    C409    C    0.41053   0.62903   0.80243   1.000
    C410    C    0.91053   0.12904   0.80243   1.000
    C411    C    0.91053   0.62903   0.80243   1.000
    C412    C    0.11037   0.08018   0.66305   1.000
    C413    C    0.11036   0.58017   0.66305   1.000
    C414    C    0.61037   0.08018   0.66305   1.000
    C415    C    0.61036   0.58017   0.66305   1.000
    C416    C    0.02137   0.44725   0.66576   1.000
    C417    C    0.02137   0.94725   0.66576   1.000
    C418    C    0.52137   0.44725   0.66576   1.000
    C419    C    0.52136   0.94725   0.66576   1.000
    C420    C    0.43784   0.02292   0.69386   1.000
    C421    C    0.43784   0.52292   0.69386   1.000
    C422    C    0.93783   0.02292   0.69386   1.000
    C423    C    0.93783   0.52292   0.69386   1.000
    C424    C    0.27138   0.05290   0.33421   1.000
    C425    C    0.27137   0.55290   0.33421   1.000
    C426    C    0.77137   0.05290   0.33421   1.000
    C427    C    0.77137   0.55290   0.33421   1.000
    C428    C    0.18753   0.47762   0.30605   1.000
    C429    C    0.18753   0.97761   0.30605   1.000
    C430    C    0.68753   0.47762   0.30600   1.000
    C431    C    0.68752   0.97762   0.30606   1.000
    C432    C    0.02115   0.30330   0.16600   1.000
    C433    C    0.02115   0.80330   0.16600   1.000
    C434    C    0.52115   0.30330   0.16600   1.000
    C435    C    0.52114   0.80330   0.16600   1.000
    C436    C    0.43760   0.22756   0.19380   1.000
    C437    C    0.43760   0.72756   0.19380   1.000
    C438    C    0.93759   0.22757   0.19380   1.000
    C439    C    0.93759   0.72756   0.19380   1.000
    C440    C    0.27148   0.19719   0.83435   1.000
    C441    C    0.27147   0.69719   0.83435   1.000
    C442    C    0.77147   0.19718   0.83436   1.000
    C443    C    0.77147   0.69719   0.83435   1.000
    C444    C    0.18758   0.27263   0.80621   1.000
    C445    C    0.18758   0.77263   0.80621   1.000
    C446    C    0.68757   0.27263   0.80621   1.000
    C447    C    0.68757   0.77263   0.80621   1.000
    O448    O    0.46791   0.22744   0.01108   1.000
    O449    O    0.42253   0.25957   0.01778   1.000
    O450    O    0.42063   0.22927   0.97160   1.000
    O451    O    0.96790   0.72744   0.01108   1.000
    O452    O    0.92252   0.75957   0.01778   1.000
    O453    O    0.92062   0.72926   0.97160   1.000
    O454    O    0.96791   0.22744   0.01108   1.000
    O455    O    0.92252   0.25957   0.01778   1.000
    O456    O    0.92062   0.22926   0.97160   1.000
    O457    O    0.46790   0.72744   0.01108   1.000
    O458    O    0.42252   0.75957   0.01778   1.000
    O459    O    0.42063   0.72926   0.97160   1.000
    O460    O    0.03309   0.72736   0.05965   1.000
    O461    O    0.00757   0.69239   0.99297   1.000
    O462    O    0.53309   0.22736   0.05965   1.000
    O463    O    0.50756   0.19240   0.99297   1.000
    O464    O    0.53309   0.72736   0.05965   1.000
    O465    O    0.50756   0.69240   0.99297   1.000
    O466    O    0.03309   0.22736   0.05965   1.000
    O467    O    0.00757   0.19240   0.99297   1.000
    O468    O    0.79450   0.84963   0.03667   1.000
    O469    O    0.73534   0.83000   0.05862   1.000
    O470    O    0.75741   0.80926   0.00696   1.000
    O471    O    0.79450   0.34963   0.03667   1.000
    O472    O    0.73534   0.33000   0.05862   1.000
    O473    O    0.75741   0.30926   0.00696   1.000
    O474    O    0.29451   0.84963   0.03667   1.000
    O475    O    0.23534   0.83000   0.05862   1.000
    O476    O    0.25742   0.80926   0.00696   1.000
    O477    O    0.29451   0.34963   0.03667   1.000
    O478    O    0.23535   0.33000   0.05862   1.000
    O479    O    0.25742   0.30926   0.00696   1.000
    O480    O    0.32353   0.38644   0.06902   1.000
    O481    O    0.82352   0.88644   0.06902   1.000
    O482    O    0.82352   0.38644   0.06902   1.000
    O483    O    0.32352   0.88644   0.06902   1.000
    O484    O    0.18103   0.80637   0.07062   1.000
    O485    O    0.11083   0.76215   0.07866   1.000
    O486    O    0.17062   0.77231   0.02783   1.000
    O487    O    0.68103   0.80637   0.07062   1.000
    O488    O    0.61083   0.76215   0.07866   1.000
    O489    O    0.67061   0.77231   0.02783   1.000
    O490    O    0.18104   0.30637   0.07107   1.000
    O491    O    0.11083   0.26215   0.07911   1.000
    O492    O    0.17062   0.27231   0.02828   1.000
    O493    O    0.68103   0.30637   0.07107   1.000
    O494    O    0.61083   0.26215   0.07911   1.000
    O495    O    0.67061   0.27231   0.02828   1.000
    O496    O    0.20848   0.84938   0.11354   1.000
    O497    O    0.20848   0.34938   0.11354   1.000
    O498    O    0.70848   0.34938   0.11354   1.000
    O499    O    0.70847   0.84938   0.11354   1.000
    O500    O    0.34601   0.42040   0.10269   1.000
    O501    O    0.29673   0.40603   0.12430   1.000
    O502    O    0.34601   0.92040   0.10269   1.000
    O503    O    0.29673   0.90602   0.12430   1.000
    O504    O    0.84601   0.92040   0.10235   1.000
    O505    O    0.79673   0.90602   0.12430   1.000
    O506    O    0.84601   0.42040   0.10269   1.000
    O507    O    0.79673   0.40603   0.12430   1.000
    O508    O    0.08816   0.20576   0.13110   1.000
    O509    O    0.04344   0.27193   0.13266   1.000
    O510    O    0.08816   0.70576   0.13110   1.000
    O511    O    0.04344   0.77193   0.13266   1.000
    O512    O    0.58816   0.20576   0.13110   1.000
    O513    O    0.54344   0.27193   0.13266   1.000
    O514    O    0.58815   0.70576   0.13110   1.000
    O515    O    0.54344   0.77193   0.13266   1.000
    O516    O    0.07073   0.10287   0.13924   1.000
    O517    O    0.07073   0.60286   0.13925   1.000
    O518    O    0.57072   0.10287   0.13925   1.000
    O519    O    0.57072   0.60287   0.13925   1.000
    O520    O    0.24085   0.38860   0.14688   1.000
    O521    O    0.18564   0.37103   0.17066   1.000
    O522    O    0.24085   0.88860   0.14688   1.000
    O523    O    0.18564   0.87103   0.17066   1.000
    O524    O    0.74085   0.38860   0.14688   1.000
    O525    O    0.68564   0.37103   0.17066   1.000
    O526    O    0.74084   0.88860   0.14688   1.000
    O527    O    0.68564   0.87103   0.17066   1.000
    O528    O    0.10109   0.13990   0.16097   1.000
    O529    O    0.10773   0.08576   0.18075   1.000
    O530    O    0.10109   0.63990   0.16097   1.000
    O531    O    0.10773   0.58576   0.18076   1.000
    O532    O    0.60108   0.13990   0.16097   1.000
    O533    O    0.60772   0.08576   0.18076   1.000
    O534    O    0.60108   0.63990   0.16097   1.000
    O535    O    0.60772   0.58576   0.18076   1.000
    O536    O    0.63660   0.17981   0.18659   1.000
    O537    O    0.63660   0.67981   0.18663   1.000
    O538    O    0.13661   0.17981   0.18663   1.000
    O539    O    0.13661   0.67981   0.18663   1.000
    O540    O    0.49247   0.79263   0.18312   1.000
    O541    O    0.49247   0.29263   0.18312   1.000
    O542    O    0.99247   0.79262   0.18312   1.000
    O543    O    0.99248   0.29263   0.18312   1.000
    O544    O    0.13512   0.36229   0.19423   1.000
    O545    O    0.63511   0.86228   0.19423   1.000
    O546    O    0.13512   0.86228   0.19423   1.000
    O547    O    0.63512   0.36229   0.19423   1.000
    O548    O    0.95069   0.75476   0.19702   1.000
    O549    O    0.45070   0.25476   0.19702   1.000
    O550    O    0.45070   0.75476   0.19702   1.000
    O551    O    0.95070   0.25476   0.19702   1.000
    O552    O    0.66427   0.88946   0.21684   1.000
    O553    O    0.66427   0.38946   0.21684   1.000
    O554    O    0.16428   0.88946   0.21684   1.000
    O555    O    0.16428   0.38946   0.21684   1.000
    O556    O    0.11576   0.03777   0.20046   1.000
    O557    O    0.11576   0.53776   0.20047   1.000
    O558    O    0.61575   0.03777   0.20047   1.000
    O559    O    0.61575   0.53777   0.20047   1.000
    O560    O    0.44597   0.30611   0.22460   1.000
    O561    O    0.44597   0.80610   0.22457   1.000
    O562    O    0.94596   0.30610   0.22460   1.000
    O563    O    0.94596   0.80610   0.22460   1.000
    O564    O    0.15109   0.07170   0.22682   1.000
    O565    O    0.65108   0.07170   0.22673   1.000
    O566    O    0.15109   0.57170   0.22683   1.000
    O567    O    0.65108   0.57170   0.22683   1.000
    O568    O    0.96824   0.90274   0.22677   1.000
    O569    O    0.96823   0.40274   0.22677   1.000
    O570    O    0.46823   0.90274   0.22674   1.000
    O571    O    0.46824   0.40274   0.22677   1.000
    O572    O    0.66932   0.21401   0.21120   1.000
    O573    O    0.68020   0.16690   0.23253   1.000
    O574    O    0.16932   0.21401   0.21124   1.000
    O575    O    0.18021   0.16690   0.23257   1.000
    O576    O    0.16932   0.71401   0.21124   1.000
    O577    O    0.18021   0.66690   0.23257   1.000
    O578    O    0.66932   0.71401   0.21124   1.000
    O579    O    0.68020   0.66690   0.23257   1.000
    O580    O    0.43774   0.86249   0.24720   1.000
    O581    O    0.42970   0.91634   0.26771   1.000
    O582    O    0.93774   0.36249   0.24726   1.000
    O583    O    0.92970   0.41634   0.26773   1.000
    O584    O    0.43774   0.36250   0.24726   1.000
    O585    O    0.42970   0.41634   0.26773   1.000
    O586    O    0.93774   0.86249   0.24727   1.000
    O587    O    0.92970   0.91634   0.26774   1.000
    O588    O    0.40098   0.82102   0.27326   1.000
    O589    O    0.90098   0.82102   0.27329   1.000
    O590    O    0.40098   0.32102   0.27330   1.000
    O591    O    0.90098   0.32102   0.27330   1.000
    O592    O    0.68805   0.11292   0.25288   1.000
    O593    O    0.69611   0.05635   0.27541   1.000
    O594    O    0.18805   0.11292   0.25298   1.000
    O595    O    0.19611   0.05635   0.27551   1.000
    O596    O    0.18805   0.61291   0.25298   1.000
    O597    O    0.19611   0.55635   0.27551   1.000
    O598    O    0.68804   0.61291   0.25298   1.000
    O599    O    0.69611   0.55635   0.27550   1.000
    O600    O    0.71871   0.15298   0.27359   1.000
    O601    O    0.21872   0.15298   0.27359   1.000
    O602    O    0.21872   0.65298   0.27359   1.000
    O603    O    0.71872   0.65298   0.27359   1.000
    O604    O    0.91382   0.63845   0.28231   1.000
    O605    O    0.91382   0.13846   0.28231   1.000
    O606    O    0.41383   0.63845   0.28231   1.000
    O607    O    0.41383   0.13846   0.28231   1.000
    O608    O    0.91860   0.46332   0.28896   1.000
    O609    O    0.41861   0.96331   0.28910   1.000
    O610    O    0.41861   0.46332   0.28911   1.000
    O611    O    0.91861   0.96331   0.28911   1.000
    O612    O    0.88607   0.92888   0.31360   1.000
    O613    O    0.88607   0.42888   0.31360   1.000
    O614    O    0.38608   0.92888   0.31360   1.000
    O615    O    0.38608   0.42889   0.31360   1.000
    O616    O    0.86585   0.78682   0.29954   1.000
    O617    O    0.85762   0.83470   0.31933   1.000
    O618    O    0.36586   0.28683   0.29955   1.000
    O619    O    0.35762   0.33470   0.31934   1.000
    O620    O    0.36586   0.78682   0.29951   1.000
    O621    O    0.35762   0.83470   0.31934   1.000
    O622    O    0.86586   0.28682   0.29956   1.000
    O623    O    0.85762   0.33470   0.31934   1.000
    O624    O    0.70072   0.50481   0.30290   1.000
    O625    O    0.74264   0.54245   0.31701   1.000
    O626    O    0.70072   0.00481   0.30294   1.000
    O627    O    0.74264   0.04245   0.31701   1.000
    O628    O    0.20072   0.00481   0.30294   1.000
    O629    O    0.24264   0.04245   0.31702   1.000
    O630    O    0.20072   0.50481   0.30294   1.000
    O631    O    0.24264   0.54245   0.31702   1.000
    O632    O    0.88471   0.61123   0.30497   1.000
    O633    O    0.93521   0.62004   0.32856   1.000
    O634    O    0.88471   0.11123   0.30497   1.000
    O635    O    0.93521   0.12004   0.32856   1.000
    O636    O    0.38471   0.61123   0.30497   1.000
    O637    O    0.43522   0.62004   0.32856   1.000
    O638    O    0.38471   0.11123   0.30497   1.000
    O639    O    0.43522   0.12004   0.32856   1.000
    O640    O    0.29346   0.52099   0.36745   1.000
    O641    O    0.79346   0.02099   0.36745   1.000
    O642    O    0.79346   0.52099   0.36745   1.000
    O643    O    0.29346   0.02099   0.36745   1.000
    O644    O    0.85076   0.38872   0.33917   1.000
    O645    O    0.83783   0.45445   0.36899   1.000
    O646    O    0.35076   0.88872   0.33917   1.000
    O647    O    0.33783   0.95445   0.36899   1.000
    O648    O    0.35076   0.38872   0.33917   1.000
    O649    O    0.33783   0.45445   0.36899   1.000
    O650    O    0.85075   0.88872   0.33917   1.000
    O651    O    0.83782   0.95444   0.36899   1.000
    O652    O    0.32061   0.35149   0.36085   1.000
    O653    O    0.32061   0.85148   0.36085   1.000
    O654    O    0.82061   0.35148   0.36085   1.000
    O655    O    0.82060   0.85148   0.36085   1.000
    O656    O    0.49027   0.63785   0.35247   1.000
    O657    O    0.54602   0.65555   0.37516   1.000
    O658    O    0.49027   0.13785   0.35247   1.000
    O659    O    0.54603   0.15556   0.37513   1.000
    O660    O    0.99027   0.63785   0.35247   1.000
    O661    O    0.04603   0.65555   0.37516   1.000
    O662    O    0.99027   0.13785   0.35247   1.000
    O663    O    0.04603   0.15555   0.37516   1.000
    O664    O    0.95809   0.09848   0.38584   1.000
    O665    O    0.45810   0.09848   0.38587   1.000
    O666    O    0.45810   0.59848   0.38584   1.000
    O667    O    0.95809   0.59848   0.38587   1.000
    O668    O    0.59519   0.67017   0.39685   1.000
    O669    O    0.59519   0.17018   0.39683   1.000
    O670    O    0.09520   0.67017   0.39685   1.000
    O671    O    0.09520   0.17017   0.39685   1.000
    O672    O    0.36074   0.51080   0.42068   1.000
    O673    O    0.28289   0.47623   0.44046   1.000
    O674    O    0.86074   0.01080   0.42068   1.000
    O675    O    0.78288   0.97623   0.44046   1.000
    O676    O    0.86074   0.51080   0.42068   1.000
    O677    O    0.78288   0.47623   0.44046   1.000
    O678    O    0.36074   0.01080   0.42068   1.000
    O679    O    0.28288   0.97623   0.44046   1.000
    O680    O    0.57287   0.13612   0.43055   1.000
    O681    O    0.57287   0.63612   0.43058   1.000
    O682    O    0.07288   0.63612   0.43058   1.000
    O683    O    0.07288   0.13612   0.43062   1.000
    O684    O    0.43089   0.55531   0.42844   1.000
    O685    O    0.48502   0.57925   0.44094   1.000
    O686    O    0.93088   0.05531   0.42844   1.000
    O687    O    0.98502   0.07925   0.44094   1.000
    O688    O    0.43089   0.05531   0.42847   1.000
    O689    O    0.48502   0.07925   0.44097   1.000
    O690    O    0.93088   0.55531   0.42847   1.000
    O691    O    0.98502   0.57925   0.44097   1.000
    O692    O    0.92068   0.52120   0.47140   1.000
    O693    O    0.92069   0.02121   0.47140   1.000
    O694    O    0.42069   0.52121   0.47140   1.000
    O695    O    0.42069   0.02121   0.47140   1.000
    O696    O    0.54404   0.59919   0.46299   1.000
    O697    O    0.54404   0.09919   0.46299   1.000
    O698    O    0.04405   0.59919   0.46299   1.000
    O699    O    0.04405   0.09919   0.46303   1.000
    O700    O    0.50720   0.55866   0.49280   1.000
    O701    O    0.50720   0.05866   0.49280   1.000
    O702    O    0.00720   0.55866   0.49280   1.000
    O703    O    0.00720   0.05866   0.49280   1.000
    O704    O    0.67269   0.00934   0.48230   1.000
    O705    O    0.67270   0.50934   0.48233   1.000
    O706    O    0.17270   0.00934   0.48233   1.000
    O707    O    0.17270   0.50934   0.48233   1.000
    O708    O    0.21784   0.47692   0.48912   1.000
    O709    O    0.25726   0.44161   0.50734   1.000
    O710    O    0.21784   0.97691   0.48912   1.000
    O711    O    0.25726   0.94160   0.50734   1.000
    O712    O    0.71783   0.47692   0.48912   1.000
    O713    O    0.75726   0.44160   0.50734   1.000
    O714    O    0.71783   0.97691   0.48912   1.000
    O715    O    0.75726   0.94160   0.50734   1.000
    O716    O    0.67075   0.97908   0.52869   1.000
    O717    O    0.17075   0.97908   0.52869   1.000
    O718    O    0.17075   0.47909   0.52869   1.000
    O719    O    0.67075   0.47908   0.52869   1.000
    O720    O    0.96783   0.02340   0.51102   1.000
    O721    O    0.92272   0.99101   0.51781   1.000
    O722    O    0.96782   0.52340   0.51102   1.000
    O723    O    0.92272   0.49101   0.51781   1.000
    O724    O    0.46783   0.02340   0.51102   1.000
    O725    O    0.42273   0.99101   0.51781   1.000
    O726    O    0.46782   0.52340   0.51102   1.000
    O727    O    0.42273   0.49101   0.51781   1.000
    O728    O    0.53293   0.02396   0.55969   1.000
    O729    O    0.03293   0.52396   0.55969   1.000
    O730    O    0.03293   0.02396   0.55969   1.000
    O731    O    0.53293   0.52396   0.55969   1.000
    O732    O    0.29417   0.40101   0.53709   1.000
    O733    O    0.23517   0.42097   0.55907   1.000
    O734    O    0.29417   0.90100   0.53709   1.000
    O735    O    0.23516   0.92097   0.55907   1.000
    O736    O    0.79416   0.40101   0.53709   1.000
    O737    O    0.73516   0.42097   0.55907   1.000
    O738    O    0.79416   0.90100   0.53709   1.000
    O739    O    0.73516   0.92097   0.55907   1.000
    O740    O    0.32306   0.36402   0.56948   1.000
    O741    O    0.82305   0.86402   0.56948   1.000
    O742    O    0.82305   0.36402   0.56948   1.000
    O743    O    0.32306   0.86402   0.56948   1.000
    O744    O    0.18103   0.94492   0.57154   1.000
    O745    O    0.11085   0.98937   0.57942   1.000
    O746    O    0.68103   0.94492   0.57154   1.000
    O747    O    0.61085   0.98937   0.57942   1.000
    O748    O    0.18104   0.44492   0.57154   1.000
    O749    O    0.11085   0.48937   0.57942   1.000
    O750    O    0.68103   0.44492   0.57154   1.000
    O751    O    0.61085   0.48937   0.57942   1.000
    O752    O    0.20833   0.40171   0.61412   1.000
    O753    O    0.20833   0.90171   0.61412   1.000
    O754    O    0.70832   0.40171   0.61412   1.000
    O755    O    0.70832   0.90171   0.61412   1.000
    O756    O    0.84543   0.82991   0.60322   1.000
    O757    O    0.79629   0.84456   0.62490   1.000
    O758    O    0.84543   0.32991   0.60322   1.000
    O759    O    0.79629   0.34456   0.62490   1.000
    O760    O    0.34543   0.82991   0.60322   1.000
    O761    O    0.29629   0.84456   0.62490   1.000
    O762    O    0.34543   0.32991   0.60322   1.000
    O763    O    0.29629   0.34456   0.62490   1.000
    O764    O    0.08801   0.54559   0.63126   1.000
    O765    O    0.04351   0.47913   0.63261   1.000
    O766    O    0.58801   0.54559   0.63126   1.000
    O767    O    0.54351   0.47913   0.63261   1.000
    O768    O    0.58801   0.04559   0.63126   1.000
    O769    O    0.54351   0.97913   0.63261   1.000
    O770    O    0.08801   0.04559   0.63126   1.000
    O771    O    0.04351   0.97913   0.63261   1.000
    O772    O    0.07073   0.14849   0.63937   1.000
    O773    O    0.57072   0.64849   0.63937   1.000
    O774    O    0.07072   0.64849   0.63938   1.000
    O775    O    0.57072   0.14849   0.63938   1.000
    O776    O    0.24057   0.86229   0.64755   1.000
    O777    O    0.18554   0.88015   0.67143   1.000
    O778    O    0.74056   0.36229   0.64755   1.000
    O779    O    0.68554   0.38015   0.67143   1.000
    O780    O    0.74056   0.86229   0.64755   1.000
    O781    O    0.68553   0.88015   0.67143   1.000
    O782    O    0.24057   0.36229   0.64755   1.000
    O783    O    0.18554   0.38015   0.67143   1.000
    O784    O    0.60097   0.61127   0.66112   1.000
    O785    O    0.60778   0.66531   0.68088   1.000
    O786    O    0.10097   0.11127   0.66112   1.000
    O787    O    0.10779   0.16531   0.68088   1.000
    O788    O    0.10097   0.61127   0.66112   1.000
    O789    O    0.10778   0.66531   0.68089   1.000
    O790    O    0.60097   0.11127   0.66112   1.000
    O791    O    0.60778   0.16531   0.68085   1.000
    O792    O    0.63638   0.57113   0.68678   1.000
    O793    O    0.63638   0.07113   0.68679   1.000
    O794    O    0.13638   0.57113   0.68678   1.000
    O795    O    0.13638   0.07114   0.68678   1.000
    O796    O    0.99269   0.45784   0.68288   1.000
    O797    O    0.99269   0.95784   0.68288   1.000
    O798    O    0.49269   0.45784   0.68291   1.000
    O799    O    0.49269   0.95784   0.68288   1.000
    O800    O    0.13505   0.88896   0.69496   1.000
    O801    O    0.63504   0.38896   0.69496   1.000
    O802    O    0.63504   0.88895   0.69496   1.000
    O803    O    0.13505   0.38896   0.69496   1.000
    O804    O    0.45093   0.49568   0.69696   1.000
    O805    O    0.45093   0.99568   0.69693   1.000
    O806    O    0.95092   0.99568   0.69693   1.000
    O807    O    0.95092   0.49568   0.69693   1.000
    O808    O    0.16420   0.36172   0.71763   1.000
    O809    O    0.16420   0.86171   0.71763   1.000
    O810    O    0.66419   0.86171   0.71763   1.000
    O811    O    0.66420   0.36172   0.71763   1.000
    O812    O    0.61597   0.21321   0.70055   1.000
    O813    O    0.61597   0.71321   0.70059   1.000
    O814    O    0.11598   0.21321   0.70061   1.000
    O815    O    0.11597   0.71321   0.70061   1.000
    O816    O    0.44613   0.94418   0.72430   1.000
    O817    O    0.94613   0.44419   0.72431   1.000
    O818    O    0.94613   0.94418   0.72431   1.000
    O819    O    0.44613   0.44419   0.72434   1.000
    O820    O    0.65119   0.17905   0.72690   1.000
    O821    O    0.65119   0.67905   0.72694   1.000
    O822    O    0.15120   0.17905   0.72694   1.000
    O823    O    0.15119   0.67905   0.72695   1.000
    O824    O    0.46829   0.34746   0.72635   1.000
    O825    O    0.46828   0.84746   0.72635   1.000
    O826    O    0.96828   0.34746   0.72635   1.000
    O827    O    0.96828   0.84746   0.72635   1.000
    O828    O    0.16900   0.53673   0.71136   1.000
    O829    O    0.18006   0.58373   0.73268   1.000
    O830    O    0.16901   0.03673   0.71136   1.000
    O831    O    0.18006   0.08373   0.73268   1.000
    O832    O    0.66900   0.53673   0.71136   1.000
    O833    O    0.68005   0.58373   0.73268   1.000
    O834    O    0.66899   0.03673   0.71138   1.000
    O835    O    0.68005   0.08373   0.73269   1.000
    O836    O    0.43782   0.38768   0.74688   1.000
    O837    O    0.42970   0.33377   0.76727   1.000
    O838    O    0.93782   0.88768   0.74688   1.000
    O839    O    0.92969   0.83377   0.76729   1.000
    O840    O    0.43782   0.88768   0.74687   1.000
    O841    O    0.42970   0.83377   0.76727   1.000
    O842    O    0.93782   0.38768   0.74688   1.000
    O843    O    0.92970   0.33377   0.76729   1.000
    O844    O    0.40108   0.92913   0.77291   1.000
    O845    O    0.90108   0.92913   0.77292   1.000
    O846    O    0.90108   0.42913   0.77292   1.000
    O847    O    0.40109   0.42913   0.77292   1.000
    O848    O    0.68805   0.63760   0.75308   1.000
    O849    O    0.69619   0.69405   0.77563   1.000
    O850    O    0.68805   0.13760   0.75308   1.000
    O851    O    0.69620   0.19406   0.77563   1.000
    O852    O    0.18806   0.13761   0.75308   1.000
    O853    O    0.19620   0.19406   0.77564   1.000
    O854    O    0.18806   0.63760   0.75308   1.000
    O855    O    0.19620   0.69405   0.77564   1.000
    O856    O    0.21864   0.09738   0.77367   1.000
    O857    O    0.21864   0.59738   0.77367   1.000
    O858    O    0.71863   0.59738   0.77367   1.000
    O859    O    0.71863   0.09738   0.77368   1.000
    O860    O    0.91438   0.61184   0.78314   1.000
    O861    O    0.91439   0.11184   0.78314   1.000
    O862    O    0.41439   0.61184   0.78314   1.000
    O863    O    0.41439   0.11184   0.78314   1.000
    O864    O    0.41853   0.28674   0.78861   1.000
    O865    O    0.41853   0.78673   0.78861   1.000
    O866    O    0.91853   0.28674   0.78863   1.000
    O867    O    0.91853   0.78673   0.78863   1.000
    O868    O    0.38604   0.32114   0.81311   1.000
    O869    O    0.38604   0.82114   0.81311   1.000
    O870    O    0.88603   0.82114   0.81313   1.000
    O871    O    0.88604   0.32114   0.81314   1.000
    O872    O    0.36597   0.46329   0.79915   1.000
    O873    O    0.35767   0.41536   0.81861   1.000
    O874    O    0.86596   0.96329   0.79915   1.000
    O875    O    0.85767   0.91535   0.81891   1.000
    O876    O    0.86597   0.46329   0.79915   1.000
    O877    O    0.85767   0.41536   0.81891   1.000
    O878    O    0.36597   0.96329   0.79915   1.000
    O879    O    0.35767   0.91535   0.81891   1.000
    O880    O    0.20079   0.74545   0.80309   1.000
    O881    O    0.24274   0.70773   0.81716   1.000
    O882    O    0.70078   0.74545   0.80309   1.000
    O883    O    0.74273   0.70773   0.81716   1.000
    O884    O    0.70079   0.24545   0.80309   1.000
    O885    O    0.74273   0.20773   0.81716   1.000
    O886    O    0.20079   0.24545   0.80309   1.000
    O887    O    0.24274   0.20773   0.81716   1.000
    O888    O    0.38510   0.13893   0.80571   1.000
    O889    O    0.43572   0.13037   0.82929   1.000
    O890    O    0.38510   0.63893   0.80571   1.000
    O891    O    0.43572   0.63037   0.82929   1.000
    O892    O    0.88510   0.13893   0.80571   1.000
    O893    O    0.93572   0.13037   0.82929   1.000
    O894    O    0.88510   0.63893   0.80571   1.000
    O895    O    0.93571   0.63037   0.82929   1.000
    O896    O    0.79348   0.72910   0.86749   1.000
    O897    O    0.29349   0.22910   0.86749   1.000
    O898    O    0.29348   0.72910   0.86749   1.000
    O899    O    0.79348   0.22910   0.86749   1.000
    O900    O    0.35075   0.36128   0.83841   1.000
    O901    O    0.33779   0.29560   0.86872   1.000
    O902    O    0.35075   0.86128   0.83871   1.000
    O903    O    0.33778   0.79559   0.86872   1.000
    O904    O    0.85075   0.36128   0.83871   1.000
    O905    O    0.83778   0.29560   0.86872   1.000
    O906    O    0.85074   0.86128   0.83871   1.000
    O907    O    0.83778   0.79559   0.86872   1.000
    O908    O    0.32061   0.39849   0.86008   1.000
    O909    O    0.82060   0.89849   0.86038   1.000
    O910    O    0.82061   0.39849   0.86038   1.000
    O911    O    0.32061   0.89849   0.86038   1.000
    O912    O    0.49099   0.61290   0.85308   1.000
    O913    O    0.54697   0.59556   0.87573   1.000
    O914    O    0.99099   0.61290   0.85317   1.000
    O915    O    0.04697   0.59555   0.87582   1.000
    O916    O    0.99100   0.11290   0.85317   1.000
    O917    O    0.04698   0.09556   0.87582   1.000
    O918    O    0.49099   0.11290   0.85318   1.000
    O919    O    0.54697   0.09556   0.87580   1.000
    O920    O    0.95853   0.65211   0.88643   1.000
    O921    O    0.95853   0.15211   0.88643   1.000
    O922    O    0.45853   0.65211   0.88643   1.000
    O923    O    0.45853   0.15211   0.88643   1.000
    O924    O    0.59632   0.58125   0.89750   1.000
    O925    O    0.09633   0.58125   0.89750   1.000
    O926    O    0.59632   0.08125   0.89747   1.000
    O927    O    0.09633   0.08125   0.89750   1.000
    O928    O    0.86069   0.73940   0.92081   1.000
    O929    O    0.78289   0.77427   0.94027   1.000
    O930    O    0.86069   0.23940   0.92081   1.000
    O931    O    0.78289   0.27427   0.94027   1.000
    O932    O    0.36069   0.73940   0.92081   1.000
    O933    O    0.28289   0.77427   0.94027   1.000
    O934    O    0.36069   0.23940   0.92081   1.000
    O935    O    0.28289   0.27427   0.94027   1.000
    O936    O    0.57378   0.11522   0.93108   1.000
    O937    O    0.07379   0.11522   0.93108   1.000
    O938    O    0.07379   0.61522   0.93108   1.000
    O939    O    0.57378   0.61522   0.93110   1.000
    O940    O    0.43103   0.19515   0.92886   1.000
    O941    O    0.48542   0.17158   0.94134   1.000
    O942    O    0.43102   0.69515   0.92886   1.000
    O943    O    0.48542   0.67158   0.94134   1.000
    O944    O    0.93102   0.69515   0.92886   1.000
    O945    O    0.98542   0.67157   0.94134   1.000
    O946    O    0.93102   0.19515   0.92886   1.000
    O947    O    0.98542   0.17158   0.94134   1.000
    O948    O    0.04470   0.15203   0.96334   1.000
    O949    O    0.04470   0.65203   0.96334   1.000
    O950    O    0.54470   0.65203   0.96336   1.000
    O951    O    0.54470   0.15203   0.96336   1.000
    O952    O    0.17247   0.24207   0.98203   1.000
    O953    O    0.67247   0.24207   0.98203   1.000
    O954    O    0.67246   0.74207   0.98204   1.000
    O955    O    0.17247   0.74207   0.98204   1.000
    O956    O    0.71779   0.27420   0.98879   1.000
    O957    O    0.71779   0.77420   0.98879   1.000
    O958    O    0.21780   0.77420   0.98879   1.000
    O959    O    0.21780   0.27421   0.98879   1.000
loop_
    _geom_bond_atom_site_label_1
    _geom_bond_atom_site_label_2
    _geom_bond_distance
    _geom_bond_site_symmetry_2
    _ccdc_geom_bond_type
    C276   O448      0.67652      .   S
    C394   O448      0.67652      .   S
    C276   O449      0.54343      .   S
    C112   O449      0.54343      .   S
    C276   O450      0.67383  1_554   S
    C400   O450      0.67383      .   S
    C279   O451      0.67660      .   S
    C393   O451      0.67660  1_455   S
    C279   O452      0.54342      .   S
    C115   O452      0.54342      .   S
    C279   O453      0.67383  1_554   S
    C403   O453      0.67383      .   S
    C278   O454      0.67659      .   S
    C392   O454      0.67659  1_455   S
    C278   O455      0.54343      .   S
    C114   O455      0.54343      .   S
    C278   O456      0.67383  1_554   S
    C402   O456      0.67383      .   S
    C277   O457      0.67651      .   S
    C395   O457      0.67651      .   S
    C277   O458      0.54343      .   S
    C113   O458      0.54343      .   S
    C277   O459      0.67384  1_554   S
    C401   O459      0.67384      .   S
    C393   O460      0.98807      .   S
    C9     O460      0.98807      .   S
    C393   O461      0.69112  1_554   S
    C293   O461      0.69112      .   S
    C394   O462      0.98806      .   S
    C10    O462      0.98806      .   S
    C394   O463      0.69112  1_554   S
    C294   O463      0.69112      .   S
    C395   O464      0.98806      .   S
    C11    O464      0.98806      .   S
    C395   O465      0.69113  1_554   S
    C295   O465      0.69113      .   S
    C392   O466      0.98806      .   S
    C8     O466      0.98806      .   S
    C392   O467      0.69112  1_554   S
    C292   O467      0.69112      .   S
    C251   O468      0.67462      .   S
    C375   O468      0.67462      .   S
    C251   O469      0.70359      .   S
    C247   O469      0.70359      .   S
    C251   O470      0.69127      .   S
    C371   O470      0.69127  1_556   S
    C250   O471      0.67463      .   S
    C374   O471      0.67463      .   S
    C250   O472      0.70358      .   S
    C246   O472      0.70358      .   S
    C250   O473      0.69127      .   S
    C370   O473      0.69127  1_556   S
    C249   O474      0.67463      .   S
    C373   O474      0.67463      .   S
    C249   O475      0.70358      .   S
    C245   O475      0.70358      .   S
    C249   O476      0.69127      .   S
    C369   O476      0.69127  1_556   S
    C248   O477      0.67463      .   S
    C372   O477      0.67463      .   S
    C248   O478      0.70359      .   S
    C244   O478      0.70359      .   S
    C248   O479      0.69127      .   S
    C368   O479      0.69127  1_556   S
    C372   O480      0.67108      .   S
    C236   O480      0.67108      .   S
    C375   O481      0.67108      .   S
    C239   O481      0.67108      .   S
    C374   O482      0.67108      .   S
    C238   O482      0.67108      .   S
    C373   O483      0.67108      .   S
    C237   O483      0.67108      .   S
    C377   O484      0.70072      .   S
    C245   O484      0.70072      .   S
    C377   O485      1.01565      .   S
    C9     O485      1.01565      .   S
    C377   O486      0.66687      .   S
    C233   O486      0.66687  1_556   S
    C379   O487      0.70071      .   S
    C247   O487      0.70071      .   S
    C379   O488      1.01565      .   S
    C11    O488      1.01565      .   S
    C379   O489      0.66687      .   S
    C235   O489      0.66687  1_556   S
    C376   O490      0.69796      .   S
    C244   O490      0.69796      .   S
    C376   O491      1.01251      .   S
    C8     O491      1.01251      .   S
    C376   O492      0.67393      .   S
    C232   O492      0.67393  1_556   S
    C378   O493      0.69795      .   S
    C246   O493      0.69795      .   S
    C378   O494      1.01252      .   S
    C10    O494      1.01252      .   S
    C378   O495      0.67393      .   S
    C234   O495      0.67393  1_556   S
    C245   O496      0.70880      .   S
    C241   O496      0.70880      .   S
    C244   O497      0.70880      .   S
    C240   O497      0.70880      .   S
    C246   O498      0.70881      .   S
    C242   O498      0.70881      .   S
    C247   O499      0.70880      .   S
    C243   O499      0.70880      .   S
    C236   O500      0.54645      .   S
    C84    O500      0.54645      .   S
    C236   O501      0.67169      .   S
    C380   O501      0.67169      .   S
    C237   O502      0.54644      .   S
    C85    O502      0.54644      .   S
    C237   O503      0.67168      .   S
    C381   O503      0.67168      .   S
    C239   O504      0.54561      .   S
    C87    O504      0.54561      .   S
    C239   O505      0.67169      .   S
    C383   O505      0.67169      .   S
    C238   O506      0.54645      .   S
    C86    O506      0.54645      .   S
    C238   O507      0.67168      .   S
    C382   O507      0.67168      .   S
    C8     O508      1.02286      .   S
    C364   O508      1.02286      .   S
    C8     O509      0.99195      .   S
    C432   O509      0.99195      .   S
    C9     O510      1.02284      .   S
    C365   O510      1.02284      .   S
    C9     O511      0.99194      .   S
    C433   O511      0.99194      .   S
    C10    O512      1.02287      .   S
    C366   O512      1.02287      .   S
    C10    O513      0.99196      .   S
    C434   O513      0.99196      .   S
    C11    O514      1.02286      .   S
    C367   O514      1.02286      .   S
    C11    O515      0.99197      .   S
    C435   O515      0.99197      .   S
    C72    O516      0.54461      .   S
    C224   O516      0.54461      .   S
    C73    O517      0.54466      .   S
    C225   O517      0.54466      .   S
    C74    O518      0.54467      .   S
    C226   O518      0.54467      .   S
    C75    O519      0.54467      .   S
    C227   O519      0.54467      .   S
    C240   O520      0.67869      .   S
    C380   O520      0.67869      .   S
    C240   O521      0.67916      .   S
    C384   O521      0.67916      .   S
    C241   O522      0.67869      .   S
    C381   O522      0.67869      .   S
    C241   O523      0.67916      .   S
    C385   O523      0.67916      .   S
    C242   O524      0.67868      .   S
    C382   O524      0.67868      .   S
    C242   O525      0.67917      .   S
    C386   O525      0.67917      .   S
    C243   O526      0.67868      .   S
    C383   O526      0.67868      .   S
    C243   O527      0.67916      .   S
    C387   O527      0.67916      .   S
    C224   O528      0.67467      .   S
    C364   O528      0.67467      .   S
    C224   O529      0.69445      .   S
    C228   O529      0.69445      .   S
    C225   O530      0.67467      .   S
    C365   O530      0.67467      .   S
    C225   O531      0.69445      .   S
    C229   O531      0.69445      .   S
    C226   O532      0.67467      .   S
    C366   O532      0.67467      .   S
    C226   O533      0.69444      .   S
    C230   O533      0.69444      .   S
    C227   O534      0.67467      .   S
    C367   O534      0.67467      .   S
    C227   O535      0.69445      .   S
    C231   O535      0.69445      .   S
    C366   O536      0.67436      .   S
    C222   O536      0.67436      .   S
    C367   O537      0.67486      .   S
    C223   O537      0.67486      .   S
    C364   O538      0.67487      .   S
    C220   O538      0.67487      .   S
    C365   O539      0.67488      .   S
    C221   O539      0.67488      .   S
    C435   O540      0.65264      .   S
    C253   O540      0.65264      .   S
    C434   O541      0.65266      .   S
    C252   O541      0.65266      .   S
    C433   O542      0.65276  1_455   S
    C255   O542      0.65276      .   S
    C432   O543      0.65273  1_455   S
    C254   O543      0.65273      .   S
    C92    O544      0.51225      .   S
    C384   O544      0.51225      .   S
    C95    O545      0.51226      .   S
    C387   O545      0.51226      .   S
    C93    O546      0.51226      .   S
    C385   O546      0.51226      .   S
    C94    O547      0.51225      .   S
    C386   O547      0.51225      .   S
    C439   O548      0.62125      .   S
    C255   O548      0.62125      .   S
    C436   O549      0.62126      .   S
    C252   O549      0.62126      .   S
    C437   O550      0.62125      .   S
    C253   O550      0.62125      .   S
    C438   O551      0.62124      .   S
    C254   O551      0.62124      .   S
    C387   O552      0.51387      .   S
    C91    O552      0.51387      .   S
    C386   O553      0.51387      .   S
    C90    O553      0.51387      .   S
    C385   O554      0.51387      .   S
    C89    O554      0.51387      .   S
    C384   O555      0.51387      .   S
    C88    O555      0.51387      .   S
    C76    O556      0.54422      .   S
    C228   O556      0.54422      .   S
    C77    O557      0.54421      .   S
    C229   O557      0.54421      .   S
    C78    O558      0.54422      .   S
    C230   O558      0.54422      .   S
    C79    O559      0.54422      .   S
    C231   O559      0.54422      .   S
    C252   O560      0.75407      .   S
    C260   O560      0.75407      .   S
    C253   O561      0.75367      .   S
    C261   O561      0.75367      .   S
    C254   O562      0.75407      .   S
    C262   O562      0.75407      .   S
    C255   O563      0.75408      .   S
    C263   O563      0.75408      .   S
    C228   O564      0.69882      .   S
    C216   O564      0.69882      .   S
    C230   O565      0.69761      .   S
    C218   O565      0.69761      .   S
    C229   O566      0.69877      .   S
    C217   O566      0.69877      .   S
    C231   O567      0.69880      .   S
    C219   O567      0.69880      .   S
    C99    O568      0.54391      .   S
    C259   O568      0.54391      .   S
    C98    O569      0.54389      .   S
    C258   O569      0.54389      .   S
    C97    O570      0.54360      .   S
    C257   O570      0.54360      .   S
    C96    O571      0.54389      .   S
    C256   O571      0.54389      .   S
    C222   O572      0.54519      .   S
    C70    O572      0.54519      .   S
    C222   O573      0.69345      .   S
    C214   O573      0.69345      .   S
    C220   O574      0.54518      .   S
    C68    O574      0.54518      .   S
    C220   O575      0.69303      .   S
    C212   O575      0.69303      .   S
    C221   O576      0.54517      .   S
    C69    O576      0.54517      .   S
    C221   O577      0.69303      .   S
    C213   O577      0.69303      .   S
    C223   O578      0.54518      .   S
    C71    O578      0.54518      .   S
    C223   O579      0.69302      .   S
    C215   O579      0.69302      .   S
    C257   O580      0.69887      .   S
    C261   O580      0.69887      .   S
    C257   O581      0.69309      .   S
    C265   O581      0.69309      .   S
    C258   O582      0.69887      .   S
    C262   O582      0.69887      .   S
    C258   O583      0.69283      .   S
    C266   O583      0.69283      .   S
    C256   O584      0.69888      .   S
    C260   O584      0.69888      .   S
    C256   O585      0.69283      .   S
    C264   O585      0.69283      .   S
    C259   O586      0.69888      .   S
    C263   O586      0.69888      .   S
    C259   O587      0.69280      .   S
    C267   O587      0.69280      .   S
    C261   O588      0.69923      .   S
    C273   O588      0.69923      .   S
    C263   O589      0.69861      .   S
    C275   O589      0.69861      .   S
    C260   O590      0.69878      .   S
    C272   O590      0.69878      .   S
    C262   O591      0.69878      .   S
    C274   O591      0.69878      .   S
    C218   O592      0.69908      .   S
    C214   O592      0.69908      .   S
    C218   O593      0.75540      .   S
    C210   O593      0.75540      .   S
    C216   O594      0.69899      .   S
    C212   O594      0.69899      .   S
    C216   O595      0.75434      .   S
    C208   O595      0.75434      .   S
    C217   O596      0.69898      .   S
    C213   O596      0.69898      .   S
    C217   O597      0.75434      .   S
    C209   O597      0.75434      .   S
    C219   O598      0.69899      .   S
    C215   O598      0.69899      .   S
    C219   O599      0.75422      .   S
    C211   O599      0.75422      .   S
    C214   O600      0.54392      .   S
    C66    O600      0.54392      .   S
    C212   O601      0.54388      .   S
    C64    O601      0.54388      .   S
    C213   O602      0.54388      .   S
    C65    O602      0.54388      .   S
    C215   O603      0.54391      .   S
    C67    O603      0.54391      .   S
    C59    O604      0.51385      .   S
    C363   O604      0.51385      .   S
    C58    O605      0.51385      .   S
    C362   O605      0.51385      .   S
    C57    O606      0.51385      .   S
    C361   O606      0.51385      .   S
    C56    O607      0.51385      .   S
    C360   O607      0.51385      .   S
    C102   O608      0.54521      .   S
    C266   O608      0.54521      .   S
    C101   O609      0.54513      .   S
    C265   O609      0.54513      .   S
    C100   O610      0.54513      .   S
    C264   O610      0.54513      .   S
    C103   O611      0.54514      .   S
    C267   O611      0.54514      .   S
    C267   O612      0.67491      .   S
    C391   O612      0.67491      .   S
    C266   O613      0.67485      .   S
    C390   O613      0.67485      .   S
    C265   O614      0.67484      .   S
    C389   O614      0.67484      .   S
    C264   O615      0.67487      .   S
    C388   O615      0.67487      .   S
    C275   O616      0.54425      .   S
    C111   O616      0.54425      .   S
    C275   O617      0.69453      .   S
    C271   O617      0.69453      .   S
    C272   O618      0.54423      .   S
    C108   O618      0.54423      .   S
    C272   O619      0.69440      .   S
    C268   O619      0.69440      .   S
    C273   O620      0.54418      .   S
    C109   O620      0.54418      .   S
    C273   O621      0.69439      .   S
    C269   O621      0.69439      .   S
    C274   O622      0.54424      .   S
    C110   O622      0.54424      .   S
    C274   O623      0.69440      .   S
    C270   O623      0.69440      .   S
    C211   O624      0.62141      .   S
    C430   O624      0.62141      .   S
    C211   O625      0.65256      .   S
    C427   O625      0.65256      .   S
    C210   O626      0.62150      .   S
    C431   O626      0.62150  1_565   S
    C210   O627      0.65250      .   S
    C426   O627      0.65250      .   S
    C208   O628      0.62149      .   S
    C429   O628      0.62149  1_565   S
    C208   O629      0.65249      .   S
    C424   O629      0.65249      .   S
    C209   O630      0.62143      .   S
    C428   O630      0.62143      .   S
    C209   O631      0.65250      .   S
    C425   O631      0.65250      .   S
    C363   O632      0.51243      .   S
    C63    O632      0.51243      .   S
    C363   O633      0.67919      .   S
    C199   O633      0.67919      .   S
    C362   O634      0.51243      .   S
    C62    O634      0.51243      .   S
    C362   O635      0.67919      .   S
    C198   O635      0.67919      .   S
    C361   O636      0.51243      .   S
    C61    O636      0.51243      .   S
    C361   O637      0.67919      .   S
    C197   O637      0.67919      .   S
    C360   O638      0.51243      .   S
    C60    O638      0.51243      .   S
    C360   O639      0.67919      .   S
    C196   O639      0.67919      .   S
    C425   O640      0.99460      .   S
    C4     O640      0.99460      .   S
    C426   O641      0.99464      .   S
    C7     O641      0.99464  1_565   S
    C427   O642      0.99462      .   S
    C6     O642      0.99462      .   S
    C424   O643      0.99462      .   S
    C5     O643      0.99462  1_565   S
    C390   O644      0.67469      .   S
    C270   O644      0.67469      .   S
    C390   O645      1.02049      .   S
    C6     O645      1.02049      .   S
    C389   O646      0.67470      .   S
    C269   O646      0.67470      .   S
    C389   O647      1.02048      .   S
    C5     O647      1.02048      .   S
    C388   O648      0.67470      .   S
    C268   O648      0.67470      .   S
    C388   O649      1.02048      .   S
    C4     O649      1.02048      .   S
    C391   O650      0.67470      .   S
    C271   O650      0.67470      .   S
    C391   O651      1.02046      .   S
    C7     O651      1.02046      .   S
    C268   O652      0.54465      .   S
    C104   O652      0.54465      .   S
    C269   O653      0.54465      .   S
    C105   O653      0.54465      .   S
    C270   O654      0.54466      .   S
    C106   O654      0.54466      .   S
    C271   O655      0.54466      .   S
    C107   O655      0.54466      .   S
    C359   O656      0.67870      .   S
    C197   O656      0.67870      .   S
    C359   O657      0.67158      .   S
    C195   O657      0.67158      .   S
    C358   O658      0.67870      .   S
    C196   O658      0.67870      .   S
    C358   O659      0.67125      .   S
    C194   O659      0.67125      .   S
    C357   O660      0.67878  1_455   S
    C199   O660      0.67878      .   S
    C357   O661      0.67159      .   S
    C193   O661      0.67159      .   S
    C356   O662      0.67878  1_455   S
    C198   O662      0.67878      .   S
    C356   O663      0.67158      .   S
    C192   O663      0.67158      .   S
    C198   O664      0.70845      .   S
    C202   O664      0.70845      .   S
    C196   O665      0.70888      .   S
    C200   O665      0.70888      .   S
    C197   O666      0.70845      .   S
    C201   O666      0.70845      .   S
    C199   O667      0.70889      .   S
    C203   O667      0.70889      .   S
    C55    O668      0.54645      .   S
    C195   O668      0.54645      .   S
    C54    O669      0.54639      .   S
    C194   O669      0.54639      .   S
    C53    O670      0.54645      .   S
    C193   O670      0.54645      .   S
    C52    O671      0.54645      .   S
    C192   O671      0.54645      .   S
    C4     O672      1.01376      .   S
    C353   O672      1.01376      .   S
    C4     O673      0.98787      .   S
    C320   O673      0.98787      .   S
    C7     O674      1.01381  1_565   S
    C354   O674      1.01381      .   S
    C7     O675      0.98787      .   S
    C323   O675      0.98787      .   S
    C6     O676      1.01375      .   S
    C355   O676      1.01375      .   S
    C6     O677      0.98787      .   S
    C322   O677      0.98787      .   S
    C5     O678      1.01379  1_565   S
    C352   O678      1.01379      .   S
    C5     O679      0.98788      .   S
    C321   O679      0.98788      .   S
    C194   O680      0.67079      .   S
    C350   O680      0.67079      .   S
    C195   O681      0.67040      .   S
    C351   O681      0.67040      .   S
    C193   O682      0.67040      .   S
    C349   O682      0.67040      .   S
    C192   O683      0.67101      .   S
    C348   O683      0.67101      .   S
    C201   O684      0.69835      .   S
    C353   O684      0.69835      .   S
    C201   O685      0.70399      .   S
    C207   O685      0.70399      .   S
    C202   O686      0.69835      .   S
    C354   O686      0.69835      .   S
    C202   O687      0.70406      .   S
    C204   O687      0.70406  1_455   S
    C200   O688      0.69818      .   S
    C352   O688      0.69818      .   S
    C200   O689      0.70362      .   S
    C206   O689      0.70362      .   S
    C203   O690      0.69817      .   S
    C355   O690      0.69817      .   S
    C203   O691      0.70370      .   S
    C205   O691      0.70370  1_455   S
    C355   O692      0.67391      .   S
    C191   O692      0.67391      .   S
    C354   O693      0.67391      .   S
    C190   O693      0.67391      .   S
    C353   O694      0.67391      .   S
    C189   O694      0.67391      .   S
    C352   O695      0.67391      .   S
    C188   O695      0.67391      .   S
    C351   O696      0.67469      .   S
    C207   O696      0.67469      .   S
    C350   O697      0.67468      .   S
    C206   O697      0.67468      .   S
    C349   O698      0.67469      .   S
    C205   O698      0.67469      .   S
    C348   O699      0.67464      .   S
    C204   O699      0.67464      .   S
    C207   O700      0.69112      .   S
    C347   O700      0.69112      .   S
    C206   O701      0.69113      .   S
    C346   O701      0.69113      .   S
    C205   O702      0.69112      .   S
    C345   O702      0.69112      .   S
    C204   O703      0.69112      .   S
    C344   O703      0.69112      .   S
    C18    O704      0.54370      .   S
    C147   O704      0.54370  1_565   S
    C19    O705      0.54345      .   S
    C146   O705      0.54345      .   S
    C16    O706      0.54346      .   S
    C145   O706      0.54346  1_565   S
    C17    O707      0.54345      .   S
    C144   O707      0.54345      .   S
    C320   O708      0.67660      .   S
    C144   O708      0.67660      .   S
    C320   O709      0.69120      .   S
    C160   O709      0.69120      .   S
    C321   O710      0.67661      .   S
    C145   O710      0.67661      .   S
    C321   O711      0.69119      .   S
    C161   O711      0.69119      .   S
    C322   O712      0.67661      .   S
    C146   O712      0.67661      .   S
    C322   O713      0.69119      .   S
    C162   O713      0.69119      .   S
    C323   O714      0.67661      .   S
    C147   O714      0.67661      .   S
    C323   O715      0.69118      .   S
    C163   O715      0.69118      .   S
    C147   O716      0.67390      .   S
    C331   O716      0.67390      .   S
    C145   O717      0.67390      .   S
    C329   O717      0.67390      .   S
    C144   O718      0.67390      .   S
    C328   O718      0.67390      .   S
    C146   O719      0.67390      .   S
    C330   O719      0.67390      .   S
    C190   O720      0.67665      .   S
    C344   O720      0.67665  1_455   S
    C190   O721      0.54345  1_545   S
    C51    O721      0.54345      .   S
    C191   O722      0.67664      .   S
    C345   O722      0.67664  1_455   S
    C191   O723      0.54342      .   S
    C50    O723      0.54342      .   S
    C188   O724      0.67656      .   S
    C346   O724      0.67656      .   S
    C188   O725      0.54346  1_545   S
    C49    O725      0.54346      .   S
    C189   O726      0.67656      .   S
    C347   O726      0.67656      .   S
    C189   O727      0.54342      .   S
    C48    O727      0.54342      .   S
    C346   O728      0.98773      .   S
    C2     O728      0.98773      .   S
    C345   O729      0.98772      .   S
    C1     O729      0.98772      .   S
    C344   O730      0.98771      .   S
    C0     O730      0.98771      .   S
    C347   O731      0.98772      .   S
    C3     O731      0.98772      .   S
    C160   O732      0.67461      .   S
    C324   O732      0.67461      .   S
    C160   O733      0.70307      .   S
    C156   O733      0.70307      .   S
    C161   O734      0.67462      .   S
    C325   O734      0.67462      .   S
    C161   O735      0.70307      .   S
    C157   O735      0.70307      .   S
    C162   O736      0.67461      .   S
    C326   O736      0.67461      .   S
    C162   O737      0.70307      .   S
    C158   O737      0.70307      .   S
    C163   O738      0.67461      .   S
    C327   O738      0.67461      .   S
    C163   O739      0.70307      .   S
    C159   O739      0.70307      .   S
    C324   O740      0.67101      .   S
    C148   O740      0.67101      .   S
    C327   O741      0.67100      .   S
    C151   O741      0.67100      .   S
    C326   O742      0.67101      .   S
    C150   O742      0.67101      .   S
    C325   O743      0.67100      .   S
    C149   O743      0.67100      .   S
    C329   O744      0.69785      .   S
    C157   O744      0.69785      .   S
    C329   O745      1.01354      .   S
    C0     O745      1.01354  1_545   S
    C331   O746      0.69785      .   S
    C159   O746      0.69785      .   S
    C331   O747      1.01353      .   S
    C2     O747      1.01353  1_545   S
    C328   O748      0.69785      .   S
    C156   O748      0.69785      .   S
    C328   O749      1.01355      .   S
    C1     O749      1.01355      .   S
    C330   O750      0.69785      .   S
    C158   O750      0.69785      .   S
    C330   O751      1.01355      .   S
    C3     O751      1.01355      .   S
    C156   O752      0.70945      .   S
    C152   O752      0.70945      .   S
    C157   O753      0.70945      .   S
    C153   O753      0.70945      .   S
    C158   O754      0.70945      .   S
    C154   O754      0.70945      .   S
    C159   O755      0.70945      .   S
    C155   O755      0.70945      .   S
    C151   O756      0.54645      .   S
    C23    O756      0.54645      .   S
    C151   O757      0.67166      .   S
    C335   O757      0.67166      .   S
    C150   O758      0.54645      .   S
    C22    O758      0.54645      .   S
    C150   O759      0.67165      .   S
    C334   O759      0.67165      .   S
    C149   O760      0.54645      .   S
    C21    O760      0.54645      .   S
    C149   O761      0.67165      .   S
    C333   O761      0.67165      .   S
    C148   O762      0.54645      .   S
    C20    O762      0.54645      .   S
    C148   O763      0.67165      .   S
    C332   O763      0.67165      .   S
    C1     O764      1.02122      .   S
    C413   O764      1.02122      .   S
    C1     O765      0.99456      .   S
    C416   O765      0.99456      .   S
    C3     O766      1.02124      .   S
    C415   O766      1.02124      .   S
    C3     O767      0.99456      .   S
    C418   O767      0.99456      .   S
    C2     O768      1.02125      .   S
    C414   O768      1.02125      .   S
    C2     O769      0.99460  1_545   S
    C419   O769      0.99460      .   S
    C0     O770      1.02122      .   S
    C412   O770      1.02122      .   S
    C0     O771      0.99460  1_545   S
    C417   O771      0.99460      .   S
    C136   O772      0.54470      .   S
    C312   O772      0.54470      .   S
    C139   O773      0.54469      .   S
    C315   O773      0.54469      .   S
    C137   O774      0.54464      .   S
    C313   O774      0.54464      .   S
    C138   O775      0.54462      .   S
    C314   O775      0.54462      .   S
    C153   O776      0.67868      .   S
    C333   O776      0.67868      .   S
    C153   O777      0.67923      .   S
    C337   O777      0.67923      .   S
    C154   O778      0.67868      .   S
    C334   O778      0.67868      .   S
    C154   O779      0.67923      .   S
    C338   O779      0.67923      .   S
    C155   O780      0.67868      .   S
    C335   O780      0.67868      .   S
    C155   O781      0.67923      .   S
    C339   O781      0.67923      .   S
    C152   O782      0.67868      .   S
    C332   O782      0.67868      .   S
    C152   O783      0.67923      .   S
    C336   O783      0.67923      .   S
    C315   O784      0.67470      .   S
    C415   O784      0.67470      .   S
    C315   O785      0.69433      .   S
    C319   O785      0.69433      .   S
    C312   O786      0.67471      .   S
    C412   O786      0.67471      .   S
    C312   O787      0.69434      .   S
    C316   O787      0.69434      .   S
    C313   O788      0.67471      .   S
    C413   O788      0.67471      .   S
    C313   O789      0.69439      .   S
    C317   O789      0.69439      .   S
    C314   O790      0.67470      .   S
    C414   O790      0.67470      .   S
    C314   O791      0.69393      .   S
    C318   O791      0.69393      .   S
    C415   O792      0.67488      .   S
    C311   O792      0.67488      .   S
    C414   O793      0.67487      .   S
    C310   O793      0.67487      .   S
    C413   O794      0.67490      .   S
    C309   O794      0.67490      .   S
    C412   O795      0.67491      .   S
    C308   O795      0.67491      .   S
    C416   O796      0.65242  1_455   S
    C166   O796      0.65242      .   S
    C417   O797      0.65242  1_455   S
    C167   O797      0.65242      .   S
    C418   O798      0.65262      .   S
    C164   O798      0.65262      .   S
    C419   O799      0.65234      .   S
    C165   O799      0.65234      .   S
    C29    O800      0.51240      .   S
    C337   O800      0.51240      .   S
    C30    O801      0.51240      .   S
    C338   O801      0.51240      .   S
    C31    O802      0.51241      .   S
    C339   O802      0.51241      .   S
    C28    O803      0.51241      .   S
    C336   O803      0.51241      .   S
    C421   O804      0.62137      .   S
    C164   O804      0.62137      .   S
    C420   O805      0.62135  1_545   S
    C165   O805      0.62135      .   S
    C422   O806      0.62135  1_545   S
    C167   O806      0.62135      .   S
    C423   O807      0.62132      .   S
    C166   O807      0.62132      .   S
    C336   O808      0.51385      .   S
    C24    O808      0.51385      .   S
    C337   O809      0.51386      .   S
    C25    O809      0.51386      .   S
    C339   O810      0.51386      .   S
    C27    O810      0.51386      .   S
    C338   O811      0.51385      .   S
    C26    O811      0.51385      .   S
    C142   O812      0.54419      .   S
    C318   O812      0.54419      .   S
    C143   O813      0.54424      .   S
    C319   O813      0.54424      .   S
    C140   O814      0.54421      .   S
    C316   O814      0.54421      .   S
    C141   O815      0.54422      .   S
    C317   O815      0.54422      .   S
    C165   O816      0.75421      .   S
    C173   O816      0.75421      .   S
    C166   O817      0.75432      .   S
    C174   O817      0.75432      .   S
    C167   O818      0.75431      .   S
    C175   O818      0.75431      .   S
    C164   O819      0.75397      .   S
    C172   O819      0.75397      .   S
    C318   O820      0.69928      .   S
    C306   O820      0.69928      .   S
    C319   O821      0.69877      .   S
    C307   O821      0.69877      .   S
    C316   O822      0.69881      .   S
    C304   O822      0.69881      .   S
    C317   O823      0.69878      .   S
    C305   O823      0.69878      .   S
    C32    O824      0.54392      .   S
    C168   O824      0.54392      .   S
    C33    O825      0.54391      .   S
    C169   O825      0.54391      .   S
    C34    O826      0.54392      .   S
    C170   O826      0.54392      .   S
    C35    O827      0.54392      .   S
    C171   O827      0.54392      .   S
    C309   O828      0.54515      .   S
    C133   O828      0.54515      .   S
    C309   O829      0.69296      .   S
    C301   O829      0.69296      .   S
    C308   O830      0.54514      .   S
    C132   O830      0.54514      .   S
    C308   O831      0.69296      .   S
    C300   O831      0.69296      .   S
    C311   O832      0.54515      .   S
    C135   O832      0.54515      .   S
    C311   O833      0.69296      .   S
    C303   O833      0.69296      .   S
    C310   O834      0.54516      .   S
    C134   O834      0.54516      .   S
    C310   O835      0.69293      .   S
    C302   O835      0.69293      .   S
    C168   O836      0.69887      .   S
    C172   O836      0.69887      .   S
    C168   O837      0.69265      .   S
    C176   O837      0.69265      .   S
    C171   O838      0.69887      .   S
    C175   O838      0.69887      .   S
    C171   O839      0.69287      .   S
    C179   O839      0.69287      .   S
    C169   O840      0.69886      .   S
    C173   O840      0.69886      .   S
    C169   O841      0.69265      .   S
    C177   O841      0.69265      .   S
    C170   O842      0.69887      .   S
    C174   O842      0.69887      .   S
    C170   O843      0.69293      .   S
    C178   O843      0.69293      .   S
    C173   O844      0.69886      .   S
    C185   O844      0.69886      .   S
    C175   O845      0.69874      .   S
    C187   O845      0.69874      .   S
    C174   O846      0.69874      .   S
    C186   O846      0.69874      .   S
    C172   O847      0.69874      .   S
    C184   O847      0.69874      .   S
    C307   O848      0.69889      .   S
    C303   O848      0.69889      .   S
    C307   O849      0.75405      .   S
    C299   O849      0.75405      .   S
    C306   O850      0.69889      .   S
    C302   O850      0.69889      .   S
    C306   O851      0.75406      .   S
    C298   O851      0.75406      .   S
    C304   O852      0.69889      .   S
    C300   O852      0.69889      .   S
    C304   O853      0.75400      .   S
    C296   O853      0.75400      .   S
    C305   O854      0.69888      .   S
    C301   O854      0.69888      .   S
    C305   O855      0.75401      .   S
    C297   O855      0.75401      .   S
    C300   O856      0.54391      .   S
    C128   O856      0.54391      .   S
    C301   O857      0.54393      .   S
    C129   O857      0.54393      .   S
    C303   O858      0.54392      .   S
    C131   O858      0.54392      .   S
    C302   O859      0.54391      .   S
    C130   O859      0.54391      .   S
    C123   O860      0.51378      .   S
    C411   O860      0.51378      .   S
    C122   O861      0.51378      .   S
    C410   O861      0.51378      .   S
    C121   O862      0.51378      .   S
    C409   O862      0.51378      .   S
    C120   O863      0.51378      .   S
    C408   O863      0.51378      .   S
    C36    O864      0.54513      .   S
    C176   O864      0.54513      .   S
    C37    O865      0.54513      .   S
    C177   O865      0.54513      .   S
    C38    O866      0.54515      .   S
    C178   O866      0.54515      .   S
    C39    O867      0.54514      .   S
    C179   O867      0.54514      .   S
    C176   O868      0.67514      .   S
    C340   O868      0.67514      .   S
    C177   O869      0.67515      .   S
    C341   O869      0.67515      .   S
    C179   O870      0.67489      .   S
    C343   O870      0.67489      .   S
    C178   O871      0.67484      .   S
    C342   O871      0.67484      .   S
    C184   O872      0.54421      .   S
    C44    O872      0.54421      .   S
    C184   O873      0.69112      .   S
    C180   O873      0.69112      .   S
    C187   O874      0.54421      .   S
    C47    O874      0.54421      .   S
    C187   O875      0.69429      .   S
    C183   O875      0.69429      .   S
    C186   O876      0.54420      .   S
    C46    O876      0.54420      .   S
    C186   O877      0.69429      .   S
    C182   O877      0.69429      .   S
    C185   O878      0.54420      .   S
    C45    O878      0.54420      .   S
    C185   O879      0.69429      .   S
    C181   O879      0.69429      .   S
    C297   O880      0.62138      .   S
    C445   O880      0.62138      .   S
    C297   O881      0.65252      .   S
    C441   O881      0.65252      .   S
    C299   O882      0.62139      .   S
    C447   O882      0.62139      .   S
    C299   O883      0.65251      .   S
    C443   O883      0.65251      .   S
    C298   O884      0.62137      .   S
    C446   O884      0.62137      .   S
    C298   O885      0.65252      .   S
    C442   O885      0.65252      .   S
    C296   O886      0.62138      .   S
    C444   O886      0.62138      .   S
    C296   O887      0.65254      .   S
    C440   O887      0.65254      .   S
    C408   O888      0.51241      .   S
    C124   O888      0.51241      .   S
    C408   O889      0.67924      .   S
    C284   O889      0.67924      .   S
    C409   O890      0.51241      .   S
    C125   O890      0.51241      .   S
    C409   O891      0.67925      .   S
    C285   O891      0.67925      .   S
    C410   O892      0.51241      .   S
    C126   O892      0.51241      .   S
    C410   O893      0.67924      .   S
    C286   O893      0.67924      .   S
    C411   O894      0.51242      .   S
    C127   O894      0.51242      .   S
    C411   O895      0.67924      .   S
    C287   O895      0.67924      .   S
    C443   O896      0.99491      .   S
    C15    O896      0.99491      .   S
    C440   O897      0.99490      .   S
    C12    O897      0.99490      .   S
    C441   O898      0.99491      .   S
    C13    O898      0.99491      .   S
    C442   O899      0.99489      .   S
    C14    O899      0.99489      .   S
    C340   O900      0.67436      .   S
    C180   O900      0.67436      .   S
    C340   O901      1.02084      .   S
    C12    O901      1.02084      .   S
    C341   O902      0.67464      .   S
    C181   O902      0.67464      .   S
    C341   O903      1.02083      .   S
    C13    O903      1.02083      .   S
    C342   O904      0.67465      .   S
    C182   O904      0.67465      .   S
    C342   O905      1.02083      .   S
    C14    O905      1.02083      .   S
    C343   O906      0.67464      .   S
    C183   O906      0.67464      .   S
    C343   O907      1.02084      .   S
    C15    O907      1.02084      .   S
    C180   O908      0.54840      .   S
    C40    O908      0.54840      .   S
    C183   O909      0.54468      .   S
    C43    O909      0.54468      .   S
    C182   O910      0.54468      .   S
    C42    O910      0.54468      .   S
    C181   O911      0.54468      .   S
    C41    O911      0.54468      .   S
    C407   O912      0.67882      .   S
    C285   O912      0.67882      .   S
    C407   O913      0.67291      .   S
    C283   O913      0.67291      .   S
    C405   O914      0.67876  1_455   S
    C287   O914      0.67876      .   S
    C405   O915      0.67165      .   S
    C281   O915      0.67165      .   S
    C404   O916      0.67875  1_455   S
    C286   O916      0.67875      .   S
    C404   O917      0.67165      .   S
    C280   O917      0.67165      .   S
    C406   O918      0.67867      .   S
    C284   O918      0.67867      .   S
    C406   O919      0.67125      .   S
    C282   O919      0.67125      .   S
    C287   O920      0.70884      .   S
    C291   O920      0.70884      .   S
    C286   O921      0.70884      .   S
    C290   O921      0.70884      .   S
    C285   O922      0.70884      .   S
    C289   O922      0.70884      .   S
    C284   O923      0.70884      .   S
    C288   O923      0.70884      .   S
    C119   O924      0.54643      .   S
    C283   O924      0.54643      .   S
    C117   O925      0.54643      .   S
    C281   O925      0.54643      .   S
    C118   O926      0.54638      .   S
    C282   O926      0.54638      .   S
    C116   O927      0.54643      .   S
    C280   O927      0.54643      .   S
    C15    O928      1.01287      .   S
    C403   O928      1.01287      .   S
    C15    O929      0.98838      .   S
    C371   O929      0.98838      .   S
    C14    O930      1.01288      .   S
    C402   O930      1.01288      .   S
    C14    O931      0.98838      .   S
    C370   O931      0.98838      .   S
    C13    O932      1.01287      .   S
    C401   O932      1.01287      .   S
    C13    O933      0.98839      .   S
    C369   O933      0.98839      .   S
    C12    O934      1.01288      .   S
    C400   O934      1.01288      .   S
    C12    O935      0.98838      .   S
    C368   O935      0.98838      .   S
    C282   O936      0.67142      .   S
    C398   O936      0.67142      .   S
    C280   O937      0.67066      .   S
    C396   O937      0.67066      .   S
    C281   O938      0.67066      .   S
    C397   O938      0.67066      .   S
    C283   O939      0.67097      .   S
    C399   O939      0.67097      .   S
    C288   O940      0.69813      .   S
    C400   O940      0.69813      .   S
    C288   O941      0.70366      .   S
    C294   O941      0.70366      .   S
    C289   O942      0.69813      .   S
    C401   O942      0.69813      .   S
    C289   O943      0.70367      .   S
    C295   O943      0.70367      .   S
    C291   O944      0.69813      .   S
    C403   O944      0.69813      .   S
    C291   O945      0.70373      .   S
    C293   O945      0.70373  1_455   S
    C290   O946      0.69813      .   S
    C402   O946      0.69813      .   S
    C290   O947      0.70374      .   S
    C292   O947      0.70374  1_455   S
    C396   O948      0.67463      .   S
    C292   O948      0.67463      .   S
    C397   O949      0.67464      .   S
    C293   O949      0.67464      .   S
    C399   O950      0.67460      .   S
    C295   O950      0.67460      .   S
    C398   O951      0.67460      .   S
    C294   O951      0.67460      .   S
    C80    O952      0.54348      .   S
    C232   O952      0.54348      .   S
    C82    O953      0.54348      .   S
    C234   O953      0.54348      .   S
    C83    O954      0.54343      .   S
    C235   O954      0.54343      .   S
    C81    O955      0.54343      .   S
    C233   O955      0.54343      .   S
    C370   O956      0.67660      .   S
    C234   O956      0.67660      .   S
    C371   O957      0.67660      .   S
    C235   O957      0.67660      .   S
    C369   O958      0.67659      .   S
    C233   O958      0.67659      .   S
    C368   O959      0.67659      .   S
    C232   O959      0.67659      .   S
