# CIF file generated by openbabel 2.4.90, see http://openbabel.sf.net
data_I
_chemical_name_common ''
_cell_length_a 18.27
_cell_length_b 20.957
_cell_length_c 18.59
_cell_angle_alpha 89.889
_cell_angle_beta 90.069
_cell_angle_gamma 89.959
_space_group_name_H-M_alt 'P 1'
_space_group_name_Hall 'P 1'
loop_
    _symmetry_equiv_pos_as_xyz
    x,y,z
loop_
    _atom_site_label
    _atom_site_type_symbol
    _atom_site_fract_x
    _atom_site_fract_y
    _atom_site_fract_z
    _atom_site_occupancy
    Zr0     Zr   0.06566   0.01101   0.59946   1.000
    Zr1     Zr   0.06565   0.51101   0.59946   1.000
    Zr2     Zr   0.56565   0.01101   0.59946   1.000
    Zr3     Zr   0.56565   0.51101   0.59946   1.000
    Zr4     Zr   0.31555   0.48908   0.40068   1.000
    Zr5     Zr   0.31555   0.98907   0.40068   1.000
    Zr6     Zr   0.81555   0.48908   0.40068   1.000
    Zr7     Zr   0.81554   0.98907   0.40068   1.000
    Zr8     Zr   0.06574   0.24057   0.09932   1.000
    Zr9     Zr   0.06574   0.74056   0.09932   1.000
    Zr10    Zr   0.56573   0.24056   0.09932   1.000
    Zr11    Zr   0.56573   0.74056   0.09932   1.000
    Zr12    Zr   0.31550   0.26101   0.90062   1.000
    Zr13    Zr   0.31549   0.76101   0.90062   1.000
    Zr14    Zr   0.81549   0.26101   0.90062   1.000
    Zr15    Zr   0.81549   0.76101   0.90062   1.000
    Zr16    Zr   0.46402   0.46844   0.70006   1.000
    Zr17    Zr   0.46401   0.96843   0.70000   1.000
    Zr18    Zr   0.96401   0.46844   0.70000   1.000
    Zr19    Zr   0.96401   0.96843   0.70000   1.000
    Zr20    Zr   0.21391   0.03200   0.29982   1.000
    Zr21    Zr   0.21391   0.53199   0.29982   1.000
    Zr22    Zr   0.71391   0.03200   0.29981   1.000
    Zr23    Zr   0.71391   0.53199   0.29980   1.000
    Zr24    Zr   0.46380   0.28195   0.20023   1.000
    Zr25    Zr   0.46380   0.78195   0.20023   1.000
    Zr26    Zr   0.96380   0.28195   0.20023   1.000
    Zr27    Zr   0.96379   0.78195   0.20023   1.000
    Zr28    Zr   0.21400   0.21827   0.79996   1.000
    Zr29    Zr   0.21400   0.71827   0.79996   1.000
    Zr30    Zr   0.71400   0.21827   0.79996   1.000
    Zr31    Zr   0.71400   0.71827   0.79996   1.000
    Zr32    Zr   0.02137   0.44725   0.66576   1.000
    Zr33    Zr   0.02137   0.94725   0.66576   1.000
    Zr34    Zr   0.52137   0.44725   0.66576   1.000
    Zr35    Zr   0.52136   0.94725   0.66576   1.000
    Zr36    Zr   0.43784   0.02292   0.69386   1.000
    Zr37    Zr   0.43784   0.52292   0.69386   1.000
    Zr38    Zr   0.93783   0.02292   0.69386   1.000
    Zr39    Zr   0.93783   0.52292   0.69386   1.000
    Zr40    Zr   0.27138   0.05290   0.33421   1.000
    Zr41    Zr   0.27137   0.55290   0.33421   1.000
    Zr42    Zr   0.77137   0.05290   0.33421   1.000
    Zr43    Zr   0.77137   0.55290   0.33421   1.000
    Zr44    Zr   0.18753   0.47762   0.30605   1.000
    Zr45    Zr   0.18753   0.97761   0.30605   1.000
    Zr46    Zr   0.68753   0.47762   0.30600   1.000
    Zr47    Zr   0.68752   0.97762   0.30606   1.000
    Zr48    Zr   0.02115   0.30330   0.16600   1.000
    Zr49    Zr   0.02115   0.80330   0.16600   1.000
    Zr50    Zr   0.52115   0.30330   0.16600   1.000
    Zr51    Zr   0.52114   0.80330   0.16600   1.000
    Zr52    Zr   0.43760   0.22756   0.19380   1.000
    Zr53    Zr   0.43760   0.72756   0.19380   1.000
    Zr54    Zr   0.93759   0.22757   0.19380   1.000
    Zr55    Zr   0.93759   0.72756   0.19380   1.000
    Zr56    Zr   0.27148   0.19719   0.83435   1.000
    Zr57    Zr   0.27147   0.69719   0.83435   1.000
    Zr58    Zr   0.77147   0.19718   0.83436   1.000
    Zr59    Zr   0.77147   0.69719   0.83435   1.000
    Zr60    Zr   0.18758   0.27263   0.80621   1.000
    Zr61    Zr   0.18758   0.77263   0.80621   1.000
    Zr62    Zr   0.68757   0.27263   0.80621   1.000
    Zr63    Zr   0.68757   0.77263   0.80621   1.000
    O64     O    0.04344   0.27193   0.13266   1.000
    O65     O    0.04344   0.77193   0.13266   1.000
    O66     O    0.54344   0.27193   0.13266   1.000
    O67     O    0.54344   0.77193   0.13266   1.000
    O68     O    0.49247   0.79263   0.18312   1.000
    O69     O    0.49247   0.29263   0.18312   1.000
    O70     O    0.99247   0.79262   0.18312   1.000
    O71     O    0.99248   0.29263   0.18312   1.000
    O72     O    0.95069   0.75476   0.19702   1.000
    O73     O    0.45070   0.25476   0.19702   1.000
    O74     O    0.45070   0.75476   0.19702   1.000
    O75     O    0.95070   0.25476   0.19702   1.000
    O76     O    0.70072   0.50481   0.30290   1.000
    O77     O    0.74264   0.54245   0.31701   1.000
    O78     O    0.70072   0.00481   0.30294   1.000
    O79     O    0.74264   0.04245   0.31701   1.000
    O80     O    0.20072   0.00481   0.30294   1.000
    O81     O    0.24264   0.04245   0.31702   1.000
    O82     O    0.20072   0.50481   0.30294   1.000
    O83     O    0.24264   0.54245   0.31702   1.000
    O84     O    0.29346   0.52099   0.36745   1.000
    O85     O    0.79346   0.02099   0.36745   1.000
    O86     O    0.79346   0.52099   0.36745   1.000
    O87     O    0.29346   0.02099   0.36745   1.000
    O88     O    0.04351   0.47913   0.63261   1.000
    O89     O    0.54351   0.47913   0.63261   1.000
    O90     O    0.54351   0.97913   0.63261   1.000
    O91     O    0.04351   0.97913   0.63261   1.000
    O92     O    0.99269   0.45784   0.68288   1.000
    O93     O    0.99269   0.95784   0.68288   1.000
    O94     O    0.49269   0.45784   0.68291   1.000
    O95     O    0.49269   0.95784   0.68288   1.000
    O96     O    0.45093   0.49568   0.69696   1.000
    O97     O    0.45093   0.99568   0.69693   1.000
    O98     O    0.95092   0.99568   0.69693   1.000
    O99     O    0.95092   0.49568   0.69693   1.000
    O100    O    0.20079   0.74545   0.80309   1.000
    O101    O    0.24274   0.70773   0.81716   1.000
    O102    O    0.70078   0.74545   0.80309   1.000
    O103    O    0.74273   0.70773   0.81716   1.000
    O104    O    0.70079   0.24545   0.80309   1.000
    O105    O    0.74273   0.20773   0.81716   1.000
    O106    O    0.20079   0.24545   0.80309   1.000
    O107    O    0.24274   0.20773   0.81716   1.000
    O108    O    0.79348   0.72910   0.86749   1.000
    O109    O    0.29349   0.22910   0.86749   1.000
    O110    O    0.29348   0.72910   0.86749   1.000
    O111    O    0.79348   0.22910   0.86749   1.000
    N112    N    0.72559   0.34520   0.09166   1.000
    O113    O    0.75424   0.30974   0.01597   1.000
    O114    O    0.66821   0.30368   0.08539   1.000
    N115    N    0.64374   0.62416   0.70643   1.000
    O116    O    0.66997   0.65911   0.74103   1.000
    O117    O    0.61587   0.58488   0.66884   1.000
    N118    N    0.39349   0.87588   0.29386   1.000
    O119    O    0.41973   0.84099   0.25921   1.000
    O120    O    0.36566   0.91516   0.33142   1.000
    N121    N    0.97525   0.09444   0.40786   1.000
    O122    O    0.00409   0.05920   0.48377   1.000
    O123    O    0.91799   0.05262   0.41427   1.000
    N124    N    0.22543   0.40576   0.59218   1.000
    O125    O    0.16814   0.44757   0.58580   1.000
    O126    O    0.25416   0.44100   0.51632   1.000
    N127    N    0.22543   0.90576   0.59218   1.000
    O128    O    0.16814   0.94757   0.58580   1.000
    O129    O    0.25416   0.94100   0.51632   1.000
    N130    N    0.47572   0.15632   0.90832   1.000
    O131    O    0.50440   0.19184   0.98398   1.000
    O132    O    0.41821   0.19786   0.91457   1.000
    N133    N    0.39349   0.37588   0.29388   1.000
    O134    O    0.41973   0.34099   0.25924   1.000
    O135    O    0.36566   0.41516   0.33143   1.000
    N136    N    0.14380   0.12669   0.20631   1.000
    O137    O    0.11598   0.16623   0.16871   1.000
    O138    O    0.16996   0.09152   0.24091   1.000
    N139    N    0.97524   0.59444   0.40786   1.000
    O140    O    0.00409   0.55920   0.48377   1.000
    O141    O    0.91799   0.55262   0.41427   1.000
    N142    N    0.89351   0.37421   0.79345   1.000
    O143    O    0.91982   0.40920   0.75888   1.000
    O144    O    0.86565   0.33490   0.83108   1.000
    N145    N    0.89348   0.87588   0.29388   1.000
    O146    O    0.91972   0.84099   0.25924   1.000
    O147    O    0.86565   0.91516   0.33143   1.000
    N148    N    0.89351   0.87421   0.79344   1.000
    O149    O    0.86564   0.83490   0.83108   1.000
    O150    O    0.91982   0.90919   0.75888   1.000
    N151    N    0.22560   0.34520   0.09166   1.000
    O152    O    0.16822   0.30368   0.08539   1.000
    O153    O    0.25425   0.30974   0.01597   1.000
    N154    N    0.39351   0.87421   0.79344   1.000
    O155    O    0.41982   0.90919   0.75887   1.000
    O156    O    0.36565   0.83490   0.83108   1.000
    N157    N    0.39351   0.37421   0.79338   1.000
    O158    O    0.41982   0.40920   0.75886   1.000
    O159    O    0.36565   0.33490   0.83105   1.000
    N160    N    0.72543   0.40576   0.59218   1.000
    O161    O    0.66814   0.44757   0.58580   1.000
    O162    O    0.75416   0.44100   0.51632   1.000
    N163    N    0.72543   0.90576   0.59218   1.000
    O164    O    0.66814   0.94756   0.58580   1.000
    O165    O    0.75415   0.94099   0.51632   1.000
    N166    N    0.64379   0.12669   0.20629   1.000
    O167    O    0.66995   0.09152   0.24085   1.000
    O168    O    0.61597   0.16622   0.16869   1.000
    N169    N    0.97572   0.15632   0.90832   1.000
    O170    O    0.00441   0.19184   0.98398   1.000
    O171    O    0.91820   0.19786   0.91457   1.000
    N172    N    0.14374   0.62416   0.70644   1.000
    O173    O    0.11588   0.58488   0.66885   1.000
    O174    O    0.16997   0.65911   0.74104   1.000
    N175    N    0.47525   0.59444   0.40785   1.000
    O176    O    0.41799   0.55262   0.41427   1.000
    O177    O    0.50409   0.55920   0.48377   1.000
    N178    N    0.89348   0.37588   0.29385   1.000
    O179    O    0.91972   0.34099   0.25923   1.000
    O180    O    0.86566   0.41516   0.33142   1.000
    N181    N    0.47572   0.65632   0.90831   1.000
    O182    O    0.50440   0.69184   0.98398   1.000
    O183    O    0.41820   0.69786   0.91456   1.000
    N184    N    0.64374   0.12416   0.70643   1.000
    O185    O    0.66997   0.15911   0.74103   1.000
    O186    O    0.61587   0.08488   0.66884   1.000
    N187    N    0.22560   0.84520   0.09160   1.000
    O188    O    0.25424   0.80974   0.01593   1.000
    O189    O    0.16821   0.80367   0.08513   1.000
    N190    N    0.97571   0.65632   0.90832   1.000
    O191    O    0.00440   0.69184   0.98398   1.000
    O192    O    0.91820   0.69786   0.91457   1.000
    N193    N    0.14375   0.12416   0.70644   1.000
    O194    O    0.11588   0.08488   0.66885   1.000
    O195    O    0.16997   0.15911   0.74104   1.000
    N196    N    0.14379   0.62669   0.20631   1.000
    O197    O    0.16995   0.59152   0.24091   1.000
    O198    O    0.11598   0.66622   0.16871   1.000
    N199    N    0.72559   0.84520   0.09155   1.000
    O200    O    0.75424   0.80974   0.01591   1.000
    O201    O    0.66821   0.80368   0.08510   1.000
    N202    N    0.64379   0.62669   0.20631   1.000
    O203    O    0.66995   0.59152   0.24091   1.000
    O204    O    0.61597   0.66622   0.16871   1.000
    N205    N    0.47525   0.09444   0.40785   1.000
    O206    O    0.50409   0.05920   0.48377   1.000
    O207    O    0.41800   0.05262   0.41427   1.000
loop_
    _geom_bond_atom_site_label_1
    _geom_bond_atom_site_label_2
    _geom_bond_distance
    _geom_bond_site_symmetry_2
    _ccdc_geom_bond_type
    Zr8    O64       0.99195      .   S
    Zr48   O64       0.99195      .   S
    Zr9    O65       0.99194      .   S
    Zr49   O65       0.99194      .   S
    Zr10   O66       0.99196      .   S
    Zr50   O66       0.99196      .   S
    Zr11   O67       0.99197      .   S
    Zr51   O67       0.99197      .   S
    Zr51   O68       0.65264      .   S
    Zr25   O68       0.65264      .   S
    Zr50   O69       0.65266      .   S
    Zr24   O69       0.65266      .   S
    Zr49   O70       0.65276  1_455   S
    Zr27   O70       0.65276      .   S
    Zr48   O71       0.65273  1_455   S
    Zr26   O71       0.65273      .   S
    Zr55   O72       0.62125      .   S
    Zr27   O72       0.62125      .   S
    Zr52   O73       0.62126      .   S
    Zr24   O73       0.62126      .   S
    Zr53   O74       0.62125      .   S
    Zr25   O74       0.62125      .   S
    Zr54   O75       0.62124      .   S
    Zr26   O75       0.62124      .   S
    Zr23   O76       0.62141      .   S
    Zr46   O76       0.62141      .   S
    Zr23   O77       0.65256      .   S
    Zr43   O77       0.65256      .   S
    Zr22   O78       0.62150      .   S
    Zr47   O78       0.62150  1_565   S
    Zr22   O79       0.65250      .   S
    Zr42   O79       0.65250      .   S
    Zr20   O80       0.62149      .   S
    Zr45   O80       0.62149  1_565   S
    Zr20   O81       0.65249      .   S
    Zr40   O81       0.65249      .   S
    Zr21   O82       0.62143      .   S
    Zr44   O82       0.62143      .   S
    Zr21   O83       0.65250      .   S
    Zr41   O83       0.65250      .   S
    Zr41   O84       0.99460      .   S
    Zr4    O84       0.99460      .   S
    Zr42   O85       0.99464      .   S
    Zr7    O85       0.99464  1_565   S
    Zr43   O86       0.99462      .   S
    Zr6    O86       0.99462      .   S
    Zr40   O87       0.99462      .   S
    Zr5    O87       0.99462  1_565   S
    Zr1    O88       0.99456      .   S
    Zr32   O88       0.99456      .   S
    Zr3    O89       0.99456      .   S
    Zr34   O89       0.99456      .   S
    Zr2    O90       0.99460  1_545   S
    Zr35   O90       0.99460      .   S
    Zr0    O91       0.99460  1_545   S
    Zr33   O91       0.99460      .   S
    Zr32   O92       0.65242  1_455   S
    Zr18   O92       0.65242      .   S
    Zr33   O93       0.65242  1_455   S
    Zr19   O93       0.65242      .   S
    Zr34   O94       0.65262      .   S
    Zr16   O94       0.65262      .   S
    Zr35   O95       0.65234      .   S
    Zr17   O95       0.65234      .   S
    Zr37   O96       0.62137      .   S
    Zr16   O96       0.62137      .   S
    Zr36   O97       0.62135  1_545   S
    Zr17   O97       0.62135      .   S
    Zr38   O98       0.62135  1_545   S
    Zr19   O98       0.62135      .   S
    Zr39   O99       0.62132      .   S
    Zr18   O99       0.62132      .   S
    Zr29   O100      0.62138      .   S
    Zr61   O100      0.62138      .   S
    Zr29   O101      0.65252      .   S
    Zr57   O101      0.65252      .   S
    Zr31   O102      0.62139      .   S
    Zr63   O102      0.62139      .   S
    Zr31   O103      0.65251      .   S
    Zr59   O103      0.65251      .   S
    Zr30   O104      0.62137      .   S
    Zr62   O104      0.62137      .   S
    Zr30   O105      0.65252      .   S
    Zr58   O105      0.65252      .   S
    Zr28   O106      0.62138      .   S
    Zr60   O106      0.62138      .   S
    Zr28   O107      0.65254      .   S
    Zr56   O107      0.65254      .   S
    Zr59   O108      0.99491      .   S
    Zr15   O108      0.99491      .   S
    Zr56   O109      0.99490      .   S
    Zr12   O109      0.99490      .   S
    Zr57   O110      0.99491      .   S
    Zr13   O110      0.99491      .   S
    Zr58   O111      0.99489      .   S
    Zr14   O111      0.99489      .   S
    N112   O113      1.67683      .   S
    Zr14   O113      2.62780  1_556   S
    N112   O114      1.36803      .   S
    Zr10   O114      2.30765      .   S
    N115   O116      1.08685      .   S
    Zr31   O116      1.84086      .   S
    N115   O117      1.19468      .   S
    Zr3    O117      2.21561      .   S
    N118   O119      1.08688      .   S
    Zr25   O119      1.84052      .   S
    N118   O120      1.19429      .   S
    Zr5    O120      2.21443      .   S
    N121   O122      1.67582  1_655   S
    Zr0    O122      2.62568      .   S
    N121   O123      1.37028      .   S
    Zr7    O123      2.31181  1_565   S
    N124   O125      1.36939      .   S
    Zr1    O125      2.31029      .   S
    N124   O126      1.67569      .   S
    Zr4    O126      2.62556      .   S
    N127   O128      1.36939      .   S
    Zr0    O128      2.31029  1_545   S
    N127   O129      1.67568      .   S
    Zr5    O129      2.62556      .   S
    N130   O131      1.67630      .   S
    Zr10   O131      2.62675  1_554   S
    N130   O132      1.36926      .   S
    Zr12   O132      2.30957      .   S
    N133   O134      1.08679      .   S
    Zr24   O134      1.84082      .   S
    N133   O135      1.19418      .   S
    Zr4    O135      2.21431      .   S
    N136   O137      1.19575      .   S
    Zr8    O137      2.21832      .   S
    N136   O138      1.08730      .   S
    Zr20   O138      1.84161      .   S
    N139   O140      1.67583  1_655   S
    Zr1    O140      2.62570      .   S
    N139   O141      1.37026      .   S
    Zr6    O141      2.31172      .   S
    N142   O143      1.08678      .   S
    Zr18   O143      1.84106      .   S
    N142   O144      1.19434      .   S
    Zr14   O144      2.21484      .   S
    N145   O146      1.08676      .   S
    Zr27   O146      1.84081      .   S
    N145   O147      1.19421      .   S
    Zr7    O147      2.21433      .   S
    N148   O149      1.19434      .   S
    Zr15   O149      2.21486      .   S
    N148   O150      1.08678      .   S
    Zr19   O150      1.84105      .   S
    N151   O152      1.36803      .   S
    Zr8    O152      2.30765      .   S
    N151   O153      1.67684      .   S
    Zr12   O153      2.62780  1_556   S
    N154   O155      1.08680      .   S
    Zr17   O155      1.84097      .   S
    N154   O156      1.19437      .   S
    Zr13   O156      2.21488      .   S
    N157   O158      1.08626      .   S
    Zr16   O158      1.84020      .   S
    N157   O159      1.19468      .   S
    Zr12   O159      2.21520      .   S
    N160   O161      1.36939      .   S
    Zr3    O161      2.31030      .   S
    N160   O162      1.67568      .   S
    Zr6    O162      2.62556      .   S
    N163   O164      1.36937      .   S
    Zr2    O164      2.31027  1_545   S
    N163   O165      1.67565      .   S
    Zr7    O165      2.62553      .   S
    N166   O167      1.08690      .   S
    Zr22   O167      1.84226      .   S
    N166   O168      1.19558      .   S
    Zr10   O168      2.21816      .   S
    N169   O170      1.67632  1_655   S
    Zr8    O170      2.62677  1_554   S
    N169   O171      1.36930      .   S
    Zr14   O171      2.30960      .   S
    N172   O173      1.19472      .   S
    Zr1    O173      2.21563      .   S
    N172   O174      1.08683      .   S
    Zr29   O174      1.84080      .   S
    N175   O176      1.37022      .   S
    Zr4    O176      2.31169      .   S
    N175   O177      1.67585      .   S
    Zr3    O177      2.62571      .   S
    N178   O179      1.08664      .   S
    Zr26   O179      1.84067      .   S
    N178   O180      1.19434      .   S
    Zr6    O180      2.21449      .   S
    N181   O182      1.67639      .   S
    Zr11   O182      2.62684  1_554   S
    N181   O183      1.36927      .   S
    Zr13   O183      2.30954      .   S
    N184   O185      1.08691      .   S
    Zr30   O185      1.84093      .   S
    N184   O186      1.19464      .   S
    Zr2    O186      2.21558      .   S
    N187   O188      1.67634      .   S
    Zr13   O188      2.62732  1_556   S
    N187   O189      1.36835      .   S
    Zr9    O189      2.30820      .   S
    N190   O191      1.67631  1_655   S
    Zr9    O191      2.62677  1_554   S
    N190   O192      1.36929      .   S
    Zr15   O192      2.30960      .   S
    N193   O194      1.19473      .   S
    Zr0    O194      2.21563      .   S
    N193   O195      1.08683      .   S
    Zr28   O195      1.84079      .   S
    N196   O197      1.08729      .   S
    Zr21   O197      1.84160      .   S
    N196   O198      1.19574      .   S
    Zr9    O198      2.21829      .   S
    N199   O200      1.67595      .   S
    Zr15   O200      2.62694  1_556   S
    N199   O201      1.36830      .   S
    Zr11   O201      2.30823      .   S
    N202   O203      1.08726      .   S
    Zr23   O203      1.84145      .   S
    N202   O204      1.19574      .   S
    Zr11   O204      2.21831      .   S
    N205   O206      1.67585      .   S
    Zr2    O206      2.62572      .   S
    N205   O207      1.37025      .   S
    Zr5    O207      2.31176  1_565   S
