# CIF file generated by openbabel 2.4.90, see http://openbabel.sf.net
data_I
_chemical_name_common ''
_cell_length_a 9.1965
_cell_length_b 12.7
_cell_length_c 13.4963
_cell_angle_alpha 116.348
_cell_angle_beta 97.1405
_cell_angle_gamma 101.028
_space_group_name_H-M_alt 'P 1'
_space_group_name_Hall 'P 1'
loop_
    _symmetry_equiv_pos_as_xyz
    x,y,z
loop_
    _atom_site_label
    _atom_site_type_symbol
    _atom_site_fract_x
    _atom_site_fract_y
    _atom_site_fract_z
    _atom_site_occupancy
    Zr0     Zr   0.39174   0.05831   0.10583   1.000
    Zr1     Zr   0.60220   0.93992   0.89154   1.000
    Zr2     Zr   0.99698   0.99905   0.99867   1.000
    N3      N    0.77110   0.30076   0.58251   1.000
    O4      O    0.64248   0.18111   0.33851   1.000
    N5      N    0.22271   0.68344   0.40548   1.000
    O6      O    0.35142   0.81013   0.65417   1.000
    N7      N    0.77807   0.92209   0.92209   1.000
    O8      O    0.73410   0.92655   0.91445   1.000
    O9      O    0.83280   0.94133   0.94124   1.000
    O10     O    0.29109   0.87580   0.25510   1.000
    O11     O    0.14194   0.83192   0.19582   1.000
    O12     O    0.86037   0.17403   0.79421   1.000
    O13     O    0.69565   0.13018   0.73011   1.000
loop_
    _geom_bond_atom_site_label_1
    _geom_bond_atom_site_label_2
    _geom_bond_distance
    _geom_bond_site_symmetry_2
    _ccdc_geom_bond_type
    N3     O4        2.90780      .   S
    Zr0    O4        3.17611      .   S
    N5     O6        2.95727      .   S
    Zr1    O6        3.21261      .   S
    N7     O8        0.42532      .   S
    Zr1    O8        1.27597      .   S
    N7     O9        0.49433      .   S
    Zr2    O9        1.48298      .   S
    Zr0    O10       3.75182  1_545   S
    N5     O10       3.82268      .   S
    Zr2    O11       4.30999  1_656   S
    N5     O11       4.10658      .   S
    Zr2    O12       4.44761  1_565   S
    N3     O12       3.92831      .   S
    N3     O13       3.56958      .   S
    Zr1    O13       3.95818  1_565   S
