# CIF file generated by openbabel 2.4.90, see http://openbabel.sf.net
data_I
_chemical_name_common ''
_cell_length_a 9.1965
_cell_length_b 12.7
_cell_length_c 13.4963
_cell_angle_alpha 116.348
_cell_angle_beta 97.1405
_cell_angle_gamma 101.028
_space_group_name_H-M_alt 'P 1'
_space_group_name_Hall 'P 1'
loop_
    _symmetry_equiv_pos_as_xyz
    x,y,z
loop_
    _atom_site_label
    _atom_site_type_symbol
    _atom_site_fract_x
    _atom_site_fract_y
    _atom_site_fract_z
    _atom_site_occupancy
    C0      C    0.39174   0.05831   0.10583   1.000
    C1      C    0.60220   0.93992   0.89154   1.000
    C2      C    0.99698   0.99905   0.99867   1.000
    C3      C    0.33187   0.44746   0.38993   1.000
    C4      C    0.42530   0.50260   0.30737   1.000
    C5      C    0.19244   0.38631   0.14419   1.000
    C6      C    0.09948   0.32899   0.22435   1.000
    C7      C    0.36973   0.83694   0.29246   1.000
    C8      C    0.29937   0.94243   0.40128   1.000
    C9      C    0.09767   0.73981   0.16890   1.000
    C10     C    0.04097   0.86003   0.27154   1.000
    C11     C    0.04156   0.67237   0.61666   1.000
    C12     C    0.04136   0.81690   0.62498   1.000
    C13     C    0.32941   0.88774   0.70244   1.000
    C14     C    0.31971   0.75070   0.70929   1.000
    C15     C    0.66129   0.55036   0.60735   1.000
    C16     C    0.56839   0.49524   0.69014   1.000
    C17     C    0.80144   0.61184   0.85307   1.000
    C18     C    0.89401   0.66905   0.77269   1.000
    C19     C    0.62421   0.16051   0.70422   1.000
    C20     C    0.69619   0.05575   0.59607   1.000
    C21     C    0.89535   0.25894   0.82911   1.000
    C22     C    0.95388   0.13951   0.72706   1.000
    C23     C    0.95227   0.32608   0.38065   1.000
    C24     C    0.95290   0.18163   0.37238   1.000
    C25     C    0.66481   0.11039   0.29496   1.000
    C26     C    0.67408   0.24737   0.28810   1.000
    C27     C    0.19389   0.60428   0.46311   1.000
    C28     C    0.26971   0.65248   0.31481   1.000
    C29     C    0.17889   0.79994   0.46922   1.000
    C30     C    0.31428   0.47188   0.32208   1.000
    C31     C    0.21227   0.36233   0.21263   1.000
    C32     C    0.28217   0.25679   0.17194   1.000
    C33     C    0.26981   0.85109   0.32744   1.000
    C34     C    0.13862   0.83589   0.23646   1.000
    C35     C    0.18550   0.91173   0.17839   1.000
    C36     C    0.11034   0.75388   0.61834   1.000
    C37     C    0.25536   0.81690   0.71417   1.000
    C38     C    0.23267   0.88060   0.83373   1.000
    C39     C    0.79990   0.39391   0.53424   1.000
    C40     C    0.72429   0.34558   0.68253   1.000
    C41     C    0.81587   0.19852   0.52834   1.000
    C42     C    0.67924   0.52605   0.67525   1.000
    C43     C    0.78134   0.63573   0.78459   1.000
    C44     C    0.71144   0.74128   0.82536   1.000
    C45     C    0.72473   0.14704   0.66986   1.000
    C46     C    0.85551   0.16287   0.76147   1.000
    C47     C    0.80859   0.08670   0.81921   1.000
    C48     C    0.88372   0.24452   0.37902   1.000
    C49     C    0.73865   0.18131   0.28321   1.000
    C50     C    0.76132   0.11767   0.16363   1.000
    C51     C    0.15333   0.71405   0.50825   1.000
    C52     C    0.25053   0.57743   0.36564   1.000
    C53     C    0.23277   0.76283   0.37007   1.000
    C54     C    0.84079   0.28428   0.48914   1.000
    C55     C    0.74323   0.42063   0.63169   1.000
    C56     C    0.76163   0.23539   0.62734   1.000
    C57     C    0.18190   0.53731   0.50651   1.000
    C58     C    0.31864   0.62404   0.22882   1.000
    C59     C    0.15595   0.90032   0.51880   1.000
    C60     C    0.40501   0.26294   0.23081   1.000
    C61     C    0.32992   0.95519   0.19446   1.000
    C62     C    0.08135   0.92462   0.11812   1.000
    C63     C    0.35803   0.93371   0.91418   1.000
    C64     C    0.10211   0.88107   0.85069   1.000
    C65     C    0.21582   0.16021   0.07510   1.000
    C66     C    0.81168   0.46087   0.49085   1.000
    C67     C    0.67526   0.37389   0.76847   1.000
    C68     C    0.83952   0.09838   0.47898   1.000
    C69     C    0.58840   0.76670   0.76670   1.000
    C70     C    0.66416   0.04288   0.80280   1.000
    C71     C    0.91270   0.07396   0.87963   1.000
    C72     C    0.63596   0.06462   0.08318   1.000
    C73     C    0.89185   0.11715   0.14665   1.000
    C74     C    0.77807   0.92209   0.92209   1.000
    O75     O    0.24899   0.20850   0.12352   1.000
    O76     O    0.10640   0.07963   0.03688   1.000
    O77     O    0.51385   0.06147   0.09450   1.000
    O78     O    0.69864   0.09114   0.12340   1.000
    O79     O    0.36083   0.00675   0.15014   1.000
    O80     O    0.39837   0.16063   0.16832   1.000
    O81     O    0.13342   0.91817   0.14825   1.000
    O82     O    0.03917   0.96183   0.05839   1.000
    O83     O    0.20235   0.37432   0.17841   1.000
    O84     O    0.82659   0.11741   0.15514   1.000
    O85     O    0.94442   0.05810   0.07266   1.000
    O86     O    0.74998   0.14949   0.22342   1.000
    O87     O    0.11814   0.78785   0.20268   1.000
    O88     O    0.24722   0.30956   0.19229   1.000
    O89     O    0.34359   0.25986   0.20138   1.000
    O90     O    0.25771   0.93346   0.18642   1.000
    O91     O    0.16206   0.87381   0.20743   1.000
    O92     O    0.15588   0.34566   0.21849   1.000
    O93     O    0.26328   0.41711   0.26736   1.000
    O94     O    0.29418   0.63826   0.27181   1.000
    O95     O    0.08979   0.84796   0.25400   1.000
    O96     O    0.20421   0.84349   0.28195   1.000
    O97     O    0.70636   0.21434   0.28566   1.000
    O98     O    0.70173   0.14585   0.28909   1.000
    O99     O    0.81118   0.21292   0.33111   1.000
    O100    O    0.31977   0.84401   0.30995   1.000
    O101    O    0.36979   0.48724   0.31473   1.000
    O102    O    0.26012   0.61495   0.34022   1.000
    O103    O    0.25124   0.70765   0.34244   1.000
    O104    O    0.28240   0.52466   0.34386   1.000
    O105    O    0.32307   0.45967   0.35601   1.000
    O106    O    0.25129   0.80696   0.34876   1.000
    O107    O    0.28459   0.89676   0.36436   1.000
    O108    O    0.22221   0.59085   0.41438   1.000
    O109    O    0.20583   0.78138   0.41964   1.000
    O110    O    0.91831   0.21308   0.37570   1.000
    O111    O    0.91799   0.28530   0.37984   1.000
    O112    O    0.86226   0.26440   0.43408   1.000
    O113    O    0.18790   0.57080   0.48481   1.000
    O114    O    0.17361   0.65916   0.48568   1.000
    O115    O    0.16611   0.75699   0.48873   1.000
    O116    O    0.16742   0.85013   0.49401   1.000
    O117    O    0.82770   0.14845   0.50366   1.000
    O118    O    0.82833   0.24140   0.50874   1.000
    O119    O    0.82034   0.33910   0.51169   1.000
    O120    O    0.80579   0.42739   0.51254   1.000
    O121    O    0.13183   0.73396   0.56330   1.000
    O122    O    0.78875   0.21695   0.57784   1.000
    O123    O    0.77156   0.40727   0.58297   1.000
    O124    O    0.71046   0.10139   0.63297   1.000
    O125    O    0.67026   0.53821   0.64130   1.000
    O126    O    0.07595   0.71312   0.61750   1.000
    O127    O    0.07585   0.78539   0.62166   1.000
    O128    O    0.18285   0.78539   0.66626   1.000
    O129    O    0.74318   0.19121   0.64860   1.000
    O130    O    0.74296   0.29049   0.65493   1.000
    O131    O    0.71123   0.47334   0.65347   1.000
    O132    O    0.73376   0.38311   0.65711   1.000
    O133    O    0.67447   0.15377   0.68704   1.000
    O134    O    0.79012   0.15495   0.71567   1.000
    O135    O    0.62381   0.51065   0.68270   1.000
    O136    O    0.73029   0.58089   0.72992   1.000
    O137    O    0.69977   0.35974   0.72550   1.000
    O138    O    0.29238   0.85232   0.70831   1.000
    O139    O    0.28753   0.78380   0.71173   1.000
    O140    O    0.24401   0.84875   0.77395   1.000
    O141    O    0.90469   0.15119   0.74426   1.000
    O142    O    0.83205   0.12479   0.79034   1.000
    O143    O    0.87543   0.21090   0.79529   1.000
    O144    O    0.64992   0.75399   0.79603   1.000
    O145    O    0.59530   0.85331   0.82912   1.000
    O146    O    0.83767   0.65239   0.77864   1.000
    O147    O    0.74639   0.68851   0.80497   1.000
    O148    O    0.79139   0.62379   0.81883   1.000
    O149    O    0.73638   0.06479   0.81101   1.000
    O150    O    0.63318   0.99140   0.84717   1.000
    O151    O    0.86065   0.08033   0.84942   1.000
    O152    O    0.16739   0.88083   0.84221   1.000
    O153    O    0.29535   0.90715   0.87396   1.000
    O154    O    0.04954   0.94006   0.92468   1.000
    O155    O    0.95484   0.03650   0.93915   1.000
    O156    O    0.48012   0.93682   0.90286   1.000
    O157    O    0.69014   0.93101   0.90681   1.000
    O158    O    0.88752   0.96057   0.96038   1.000
    O159    O    0.37488   0.99601   0.01001   1.000
    O160    O    0.30378   0.10926   0.09046   1.000
    O161    O    0.61908   0.00227   0.98736   1.000
loop_
    _geom_bond_atom_site_label_1
    _geom_bond_atom_site_label_2
    _geom_bond_distance
    _geom_bond_site_symmetry_2
    _ccdc_geom_bond_type
    C65    O75       0.64758      .   S
    C32    O75       0.64758      .   S
    C65    O76       1.15516      .   S
    C2     O76       1.15516  1_666   S
    C72    O77       1.14761      .   S
    C0     O77       1.14761      .   S
    C72    O78       0.65273      .   S
    C50    O78       0.65273      .   S
    C0     O79       1.08901      .   S
    C61    O79       1.08901  1_565   S
    C0     O80       1.17794      .   S
    C60    O80       1.17794      .   S
    C62    O81       0.63055      .   S
    C35    O81       0.63055      .   S
    C62    O82       1.16369      .   S
    C2     O82       1.16369  1_656   S
    C5     O83       0.54960      .   S
    C31    O83       0.54960      .   S
    C73    O84       0.62525      .   S
    C50    O84       0.62525      .   S
    C73    O85       1.17781      .   S
    C2     O85       1.17781  1_566   S
    C50    O86       0.75693      .   S
    C49    O86       0.75693      .   S
    C9     O87       0.55078      .   S
    C34    O87       0.55078      .   S
    C32    O88       0.75425      .   S
    C31    O88       0.75425      .   S
    C32    O89       0.63277      .   S
    C60    O89       0.63277      .   S
    C35    O90       0.64374      .   S
    C61    O90       0.64374      .   S
    C35    O91       0.76204      .   S
    C34    O91       0.76204      .   S
    C31    O92       0.55056      .   S
    C6     O92       0.55056      .   S
    C31    O93       0.76317      .   S
    C30    O93       0.76317      .   S
    C58    O94       0.61231      .   S
    C28    O94       0.61231      .   S
    C34    O95       0.54927      .   S
    C10    O95       0.54927      .   S
    C34    O96       0.76371      .   S
    C33    O96       0.76371      .   S
    C49    O97       0.55048      .   S
    C26    O97       0.55048      .   S
    C49    O98       0.55158      .   S
    C25    O98       0.55158      .   S
    C49    O99       0.76425      .   S
    C48    O99       0.76425      .   S
    C7     O100      0.54667      .   S
    C33    O100      0.54667      .   S
    C4     O101      0.54790      .   S
    C30    O101      0.54790      .   S
    C28    O102      0.69936      .   S
    C52    O102      0.69936      .   S
    C28    O103      0.69881      .   S
    C53    O103      0.69881      .   S
    C30    O104      0.73705      .   S
    C52    O104      0.73705      .   S
    C30    O105      0.54666      .   S
    C3     O105      0.54666      .   S
    C33    O106      0.73794      .   S
    C53    O106      0.73794      .   S
    C33    O107      0.54741      .   S
    C8     O107      0.54741      .   S
    C52    O108      0.69967      .   S
    C27    O108      0.69967      .   S
    C53    O109      0.69868      .   S
    C29    O109      0.69868      .   S
    C24    O110      0.54676      .   S
    C48    O110      0.54676      .   S
    C48    O111      0.54706      .   S
    C23    O111      0.54706      .   S
    C48    O112      0.73752      .   S
    C54    O112      0.73752      .   S
    C27    O113      0.61253      .   S
    C57    O113      0.61253      .   S
    C27    O114      0.69916      .   S
    C51    O114      0.69916      .   S
    C29    O115      0.70094      .   S
    C51    O115      0.70094      .   S
    C29    O116      0.61202      .   S
    C59    O116      0.61202      .   S
    C68    O117      0.61201      .   S
    C41    O117      0.61201      .   S
    C54    O118      0.70090      .   S
    C41    O118      0.70090      .   S
    C54    O119      0.69916      .   S
    C39    O119      0.69916      .   S
    C66    O120      0.61252      .   S
    C39    O120      0.61252      .   S
    C51    O121      0.73749      .   S
    C36    O121      0.73749      .   S
    C41    O122      0.69873      .   S
    C56    O122      0.69873      .   S
    C39    O123      0.69970      .   S
    C55    O123      0.69970      .   S
    C20    O124      0.54741      .   S
    C45    O124      0.54741      .   S
    C15    O125      0.54666      .   S
    C42    O125      0.54666      .   S
    C11    O126      0.54707      .   S
    C36    O126      0.54707      .   S
    C36    O127      0.54677      .   S
    C12    O127      0.54677      .   S
    C36    O128      0.76419      .   S
    C37    O128      0.76419      .   S
    C56    O129      0.73793      .   S
    C45    O129      0.73793      .   S
    C56    O130      0.69881      .   S
    C40    O130      0.69881      .   S
    C55    O131      0.73709      .   S
    C42    O131      0.73709      .   S
    C55    O132      0.69935      .   S
    C40    O132      0.69935      .   S
    C45    O133      0.54668      .   S
    C19    O133      0.54668      .   S
    C45    O134      0.76365      .   S
    C46    O134      0.76365      .   S
    C42    O135      0.54790      .   S
    C16    O135      0.54790      .   S
    C42    O136      0.76321      .   S
    C43    O136      0.76321      .   S
    C40    O137      0.61232      .   S
    C67    O137      0.61232      .   S
    C13    O138      0.55157      .   S
    C37    O138      0.55157      .   S
    C14    O139      0.55050      .   S
    C37    O139      0.55050      .   S
    C37    O140      0.75687      .   S
    C38    O140      0.75687      .   S
    C22    O141      0.54925      .   S
    C46    O141      0.54925      .   S
    C46    O142      0.76198      .   S
    C47    O142      0.76198      .   S
    C46    O143      0.55079      .   S
    C21    O143      0.55079      .   S
    C69    O144      0.73403      .   S
    C44    O144      0.73403      .   S
    C69    O145      1.03013      .   S
    C1     O145      1.03013      .   S
    C18    O146      0.55056      .   S
    C43    O146      0.55056      .   S
    C43    O147      0.75430      .   S
    C44    O147      0.75430      .   S
    C43    O148      0.54962      .   S
    C17    O148      0.54962      .   S
    C70    O149      0.64374      .   S
    C47    O149      0.64374      .   S
    C70    O150      1.08892  1_545   S
    C1     O150      1.08892      .   S
    C47    O151      0.63050      .   S
    C71    O151      0.63050      .   S
    C38    O152      0.62529      .   S
    C64    O152      0.62529      .   S
    C38    O153      0.65273      .   S
    C63    O153      0.65273      .   S
    C64    O154      1.17758      .   S
    C2     O154      1.17758  1_655   S
    C71    O155      1.16365      .   S
    C2     O155      1.16365  1_565   S
    C1     O156      1.14741      .   S
    C63    O156      1.14741      .   S
    C1     O157      0.85064      .   S
    C74    O157      0.85064      .   S
    C74    O158      0.98865      .   S
    C2     O158      0.98865      .   S
    C63    O159      1.14786  1_556   S
    C0     O159      1.14786  1_545   S
    C65    O160      1.18058      .   S
    C0     O160      1.18058      .   S
    C72    O161      1.14787  1_554   S
    C1     O161      1.14787  1_565   S
