# CIF file generated by openbabel 2.4.90, see http://openbabel.sf.net
data_I
_chemical_name_common ''
_cell_length_a 18.425
_cell_length_b 18.432
_cell_length_c 18.433
_cell_angle_alpha 60.135
_cell_angle_beta 60.158
_cell_angle_gamma 60.157
_space_group_name_H-M_alt 'P 1'
_space_group_name_Hall 'P 1'
loop_
    _symmetry_equiv_pos_as_xyz
    x,y,z
loop_
    _atom_site_label
    _atom_site_type_symbol
    _atom_site_fract_x
    _atom_site_fract_y
    _atom_site_fract_z
    _atom_site_occupancy
    C0      C    0.20660   0.38050   0.20674   1.000
    C1      C    0.38046   0.20664   0.20662   1.000
    C2      C    0.20643   0.20634   0.20633   1.000
    C3      C    0.20660   0.20675   0.38048   1.000
    C4      C    0.61956   0.79337   0.79335   1.000
    C5      C    0.79342   0.61951   0.79323   1.000
    C6      C    0.79360   0.79367   0.79364   1.000
    C7      C    0.79342   0.79326   0.61900   1.000
    C8      C    0.04822   0.56807   0.04860   1.000
    C9      C    0.56810   0.04794   0.33564   1.000
    C10     C    0.04806   0.33567   0.04753   1.000
    C11     C    0.33564   0.04831   0.56810   1.000
    C12     C    0.04805   0.04754   0.33566   1.000
    C13     C    0.56810   0.33566   0.04790   1.000
    C14     C    0.04823   0.04859   0.56804   1.000
    C15     C    0.33564   0.56820   0.04830   1.000
    C16     C    0.04814   0.33565   0.56816   1.000
    C17     C    0.56813   0.04837   0.04837   1.000
    C18     C    0.04814   0.56820   0.33565   1.000
    C19     C    0.33564   0.04776   0.04777   1.000
    C20     C    0.43189   0.95163   0.95160   1.000
    C21     C    0.95188   0.43181   0.66433   1.000
    C22     C    0.66438   0.95225   0.95221   1.000
    C23     C    0.95188   0.66436   0.43181   1.000
    C24     C    0.95197   0.95247   0.66431   1.000
    C25     C    0.66438   0.43181   0.95166   1.000
    C26     C    0.95179   0.95142   0.43194   1.000
    C27     C    0.43192   0.66435   0.95204   1.000
    C28     C    0.66438   0.95170   0.43181   1.000
    C29     C    0.95180   0.43194   0.95138   1.000
    C30     C    0.43192   0.95207   0.66433   1.000
    C31     C    0.95196   0.66434   0.95244   1.000
    C32     C    0.02671   0.53902   0.02690   1.000
    C33     C    0.53906   0.02655   0.40764   1.000
    C34     C    0.02662   0.40767   0.02632   1.000
    C35     C    0.40764   0.02676   0.53908   1.000
    C36     C    0.02662   0.02633   0.40765   1.000
    C37     C    0.53905   0.40766   0.02654   1.000
    C38     C    0.02672   0.02692   0.53899   1.000
    C39     C    0.40764   0.53911   0.02676   1.000
    C40     C    0.02667   0.40765   0.53907   1.000
    C41     C    0.53904   0.02681   0.02680   1.000
    C42     C    0.02667   0.53910   0.40764   1.000
    C43     C    0.40764   0.02646   0.02646   1.000
    C44     C    0.46098   0.97321   0.97317   1.000
    C45     C    0.97335   0.46091   0.59233   1.000
    C46     C    0.59237   0.97355   0.97351   1.000
    C47     C    0.97334   0.59236   0.46090   1.000
    C48     C    0.97340   0.97368   0.59233   1.000
    C49     C    0.59238   0.46090   0.97321   1.000
    C50     C    0.97330   0.97308   0.46098   1.000
    C51     C    0.46097   0.59235   0.97343   1.000
    C52     C    0.59238   0.97325   0.46089   1.000
    C53     C    0.97331   0.46099   0.97304   1.000
    C54     C    0.46096   0.97346   0.59234   1.000
    C55     C    0.97340   0.59234   0.97365   1.000
    C56     C    0.11101   0.38897   0.11094   1.000
    C57     C    0.05367   0.44632   0.05361   1.000
    C58     C    0.38902   0.11114   0.38911   1.000
    C59     C    0.44636   0.05367   0.44640   1.000
    C60     C    0.11101   0.11095   0.38895   1.000
    C61     C    0.05367   0.05361   0.44630   1.000
    C62     C    0.38902   0.38913   0.11110   1.000
    C63     C    0.44636   0.44642   0.05360   1.000
    C64     C    0.11112   0.38912   0.38910   1.000
    C65     C    0.05369   0.44641   0.44639   1.000
    C66     C    0.38898   0.11094   0.11095   1.000
    C67     C    0.44632   0.05362   0.05363   1.000
    C68     C    0.61104   0.88907   0.88903   1.000
    C69     C    0.55370   0.94638   0.94635   1.000
    C70     C    0.88890   0.61088   0.61087   1.000
    C71     C    0.94632   0.55360   0.55358   1.000
    C72     C    0.88901   0.88906   0.61102   1.000
    C73     C    0.94634   0.94640   0.55367   1.000
    C74     C    0.61100   0.61088   0.88884   1.000
    C75     C    0.55366   0.55359   0.94630   1.000
    C76     C    0.61100   0.88887   0.61080   1.000
    C77     C    0.55366   0.94634   0.55350   1.000
    C78     C    0.88900   0.61104   0.88900   1.000
    C79     C    0.94634   0.55368   0.94637   1.000
    C80     C    0.24997   0.25003   0.25001   1.000
    C81     C    0.75005   0.74998   0.74996   1.000
    C82     C    0.13319   0.42860   0.13318   1.000
    C83     C    0.42860   0.13330   0.30532   1.000
    C84     C    0.13302   0.30516   0.13291   1.000
    C85     C    0.30523   0.13329   0.42871   1.000
    C86     C    0.13301   0.13292   0.30515   1.000
    C87     C    0.42860   0.30534   0.13300   1.000
    C88     C    0.13320   0.13318   0.42858   1.000
    C89     C    0.30523   0.42874   0.13328   1.000
    C90     C    0.13328   0.30533   0.42870   1.000
    C91     C    0.42862   0.13316   0.13315   1.000
    C92     C    0.13328   0.42873   0.30531   1.000
    C93     C    0.30515   0.13293   0.13293   1.000
    C94     C    0.57140   0.86685   0.86682   1.000
    C95     C    0.86674   0.57128   0.69466   1.000
    C96     C    0.69487   0.86708   0.86704   1.000
    C97     C    0.86674   0.69468   0.57127   1.000
    C98     C    0.86701   0.86709   0.69482   1.000
    C99     C    0.69479   0.57127   0.86669   1.000
    C100    C    0.86682   0.86682   0.57100   1.000
    C101    C    0.57142   0.69467   0.86660   1.000
    C102    C    0.69479   0.86672   0.57126   1.000
    C103    C    0.86683   0.57141   0.86678   1.000
    C104    C    0.57142   0.86670   0.69465   1.000
    C105    C    0.86700   0.69485   0.86706   1.000
    O106    O    0.03734   0.37167   0.03692   1.000
    O107    O    0.04015   0.42699   0.03997   1.000
    O108    O    0.99997   0.43433   0.99968   1.000
    O109    O    0.37164   0.03711   0.03712   1.000
    O110    O    0.42698   0.04004   0.04004   1.000
    O111    O    0.43431   0.99983   0.99982   1.000
    O112    O    0.55357   0.37166   0.03722   1.000
    O113    O    0.49271   0.42704   0.04007   1.000
    O114    O    0.56572   0.43428   0.99987   1.000
    O115    O    0.37164   0.55365   0.03753   1.000
    O116    O    0.42700   0.49276   0.04018   1.000
    O117    O    0.43430   0.56573   0.00010   1.000
    O118    O    0.55358   0.03759   0.03759   1.000
    O119    O    0.49268   0.04021   0.04022   1.000
    O120    O    0.56571   0.00018   0.00015   1.000
    O121    O    0.03747   0.55354   0.03775   1.000
    O122    O    0.04019   0.49267   0.04025   1.000
    O123    O    0.00006   0.56568   0.00028   1.000
    O124    O    0.41769   0.41777   0.08235   1.000
    O125    O    0.08234   0.41765   0.08227   1.000
    O126    O    0.41765   0.08228   0.08229   1.000
    O127    O    0.12202   0.34707   0.12192   1.000
    O128    O    0.12210   0.40878   0.12206   1.000
    O129    O    0.34706   0.12193   0.12194   1.000
    O130    O    0.40880   0.12205   0.12205   1.000
    O131    O    0.40881   0.34723   0.12205   1.000
    O132    O    0.34712   0.40893   0.12219   1.000
    O133    O    0.16972   0.25575   0.16962   1.000
    O134    O    0.25579   0.16963   0.16963   1.000
    O135    O    0.40453   0.25599   0.16981   1.000
    O136    O    0.40454   0.16990   0.16989   1.000
    O137    O    0.16990   0.40455   0.16996   1.000
    O138    O    0.25591   0.40462   0.17001   1.000
    O139    O    0.16972   0.16963   0.25574   1.000
    O140    O    0.31522   0.22833   0.22832   1.000
    O141    O    0.40453   0.16997   0.25597   1.000
    O142    O    0.22829   0.31526   0.22838   1.000
    O143    O    0.16994   0.40461   0.25603   1.000
    O144    O    0.12201   0.12193   0.34705   1.000
    O145    O    0.12220   0.40893   0.34721   1.000
    O146    O    0.40881   0.12222   0.34721   1.000
    O147    O    0.55358   0.03724   0.37164   1.000
    O148    O    0.03741   0.55365   0.37165   1.000
    O149    O    0.03733   0.03693   0.37166   1.000
    O150    O    0.16990   0.16997   0.40453   1.000
    O151    O    0.16994   0.25604   0.40459   1.000
    O152    O    0.25592   0.17002   0.40460   1.000
    O153    O    0.12211   0.12206   0.40877   1.000
    O154    O    0.08234   0.08228   0.41762   1.000
    O155    O    0.12220   0.34723   0.40890   1.000
    O156    O    0.08241   0.41777   0.41775   1.000
    O157    O    0.34713   0.12221   0.40891   1.000
    O158    O    0.41769   0.08241   0.41775   1.000
    O159    O    0.49271   0.04011   0.42702   1.000
    O160    O    0.56572   0.99990   0.43427   1.000
    O161    O    0.04018   0.49275   0.42702   1.000
    O162    O    0.00001   0.56573   0.43427   1.000
    O163    O    0.04015   0.03997   0.42697   1.000
    O164    O    0.99996   0.99970   0.43432   1.000
    O165    O    0.62838   0.96247   0.44635   1.000
    O166    O    0.96261   0.62836   0.44635   1.000
    O167    O    0.96255   0.96225   0.44646   1.000
    O168    O    0.04020   0.04027   0.49264   1.000
    O169    O    0.04018   0.42703   0.49273   1.000
    O170    O    0.42700   0.04022   0.49274   1.000
    O171    O    0.57302   0.95979   0.50720   1.000
    O172    O    0.95983   0.57298   0.50724   1.000
    O173    O    0.95982   0.95974   0.50733   1.000
    O174    O    0.03747   0.03776   0.55351   1.000
    O175    O    0.00006   0.00030   0.56566   1.000
    O176    O    0.03741   0.37165   0.55362   1.000
    O177    O    0.00001   0.43428   0.56570   1.000
    O178    O    0.37164   0.03754   0.55359   1.000
    O179    O    0.43430   0.00011   0.56571   1.000
    O180    O    0.50731   0.95990   0.57292   1.000
    O181    O    0.58233   0.91760   0.58215   1.000
    O182    O    0.95983   0.50725   0.57295   1.000
    O183    O    0.91761   0.58224   0.58222   1.000
    O184    O    0.95987   0.96004   0.57300   1.000
    O185    O    0.91767   0.91773   0.58235   1.000
    O186    O    0.87791   0.87794   0.59101   1.000
    O187    O    0.83012   0.83004   0.59500   1.000
    O188    O    0.65289   0.87780   0.59103   1.000
    O189    O    0.74410   0.82999   0.59513   1.000
    O190    O    0.87782   0.65278   0.59107   1.000
    O191    O    0.83008   0.74397   0.59514   1.000
    O192    O    0.96261   0.44636   0.62833   1.000
    O193    O    0.96268   0.96308   0.62832   1.000
    O194    O    0.44644   0.96277   0.62833   1.000
    O195    O    0.59121   0.87779   0.65272   1.000
    O196    O    0.87782   0.59108   0.65277   1.000
    O197    O    0.87801   0.87807   0.65292   1.000
    O198    O    0.59549   0.83004   0.74400   1.000
    O199    O    0.83008   0.59539   0.74395   1.000
    O200    O    0.83030   0.83038   0.74423   1.000
    O201    O    0.77173   0.68475   0.77160   1.000
    O202    O    0.68480   0.77168   0.77165   1.000
    O203    O    0.74410   0.59539   0.82996   1.000
    O204    O    0.83012   0.59546   0.83000   1.000
    O205    O    0.59549   0.74402   0.82998   1.000
    O206    O    0.59548   0.83011   0.83008   1.000
    O207    O    0.74423   0.83038   0.83034   1.000
    O208    O    0.83030   0.74426   0.83035   1.000
    O209    O    0.59121   0.65277   0.87772   1.000
    O210    O    0.65289   0.59107   0.87776   1.000
    O211    O    0.87791   0.59122   0.87789   1.000
    O212    O    0.59122   0.87796   0.87792   1.000
    O213    O    0.65296   0.87808   0.87804   1.000
    O214    O    0.87800   0.65294   0.87803   1.000
    O215    O    0.58233   0.58223   0.91757   1.000
    O216    O    0.91767   0.58236   0.91769   1.000
    O217    O    0.58237   0.91772   0.91769   1.000
    O218    O    0.57302   0.50724   0.95975   1.000
    O219    O    0.50731   0.57297   0.95987   1.000
    O220    O    0.50734   0.95979   0.95976   1.000
    O221    O    0.57304   0.95996   0.95993   1.000
    O222    O    0.95982   0.50734   0.95971   1.000
    O223    O    0.95987   0.57301   0.96001   1.000
    O224    O    0.96255   0.44647   0.96221   1.000
    O225    O    0.44644   0.96242   0.96238   1.000
    O226    O    0.62838   0.44636   0.96243   1.000
    O227    O    0.44645   0.62835   0.96274   1.000
    O228    O    0.62838   0.96290   0.96286   1.000
    O229    O    0.96268   0.62834   0.96304   1.000
    O230    O    0.22820   0.22818   0.22817   1.000
    O231    O    0.22829   0.22839   0.31524   1.000
    O232    O    0.77182   0.77183   0.77180   1.000
    O233    O    0.77173   0.77162   0.68448   1.000
loop_
    _geom_bond_atom_site_label_1
    _geom_bond_atom_site_label_2
    _geom_bond_distance
    _geom_bond_site_symmetry_2
    _ccdc_geom_bond_type
    C34    O106      0.54430      .   S
    C10    O106      0.54430      .   S
    C34    O107      0.70162      .   S
    C57    O107      0.70162      .   S
    C34    O108      0.69524  1_454   S
    C53    O108      0.69524      .   S
    C43    O109      0.54431      .   S
    C19    O109      0.54431      .   S
    C43    O110      0.70164      .   S
    C67    O110      0.70164      .   S
    C43    O111      0.69531  1_544   S
    C44    O111      0.69531      .   S
    C37    O112      0.54429      .   S
    C13    O112      0.54429      .   S
    C37    O113      0.70157      .   S
    C63    O113      0.70157      .   S
    C37    O114      0.69508  1_554   S
    C49    O114      0.69508      .   S
    C39    O115      0.54430      .   S
    C15    O115      0.54430      .   S
    C39    O116      0.70159      .   S
    C63    O116      0.70159      .   S
    C39    O117      0.69507      .   S
    C51    O117      0.69507  1_556   S
    C41    O118      0.54427      .   S
    C17    O118      0.54427      .   S
    C41    O119      0.70169      .   S
    C67    O119      0.70169      .   S
    C41    O120      0.69531      .   S
    C46    O120      0.69531  1_566   S
    C32    O121      0.54450      .   S
    C8     O121      0.54450      .   S
    C32    O122      0.70164      .   S
    C57    O122      0.70164      .   S
    C32    O123      0.69504      .   S
    C55    O123      0.69504  1_656   S
    C63    O124      0.74766      .   S
    C62    O124      0.74766      .   S
    C57    O125      0.74791      .   S
    C56    O125      0.74791      .   S
    C67    O126      0.74808      .   S
    C66    O126      0.74808      .   S
    C56    O127      0.63866      .   S
    C84    O127      0.63866      .   S
    C56    O128      0.63851      .   S
    C82    O128      0.63851      .   S
    C66    O129      0.63867      .   S
    C93    O129      0.63867      .   S
    C66    O130      0.63857      .   S
    C91    O130      0.63857      .   S
    C62    O131      0.63856      .   S
    C87    O131      0.63856      .   S
    C62    O132      0.63855      .   S
    C89    O132      0.63855      .   S
    C84    O133      0.98657      .   S
    C2     O133      0.98657      .   S
    C93    O134      0.98674      .   S
    C2     O134      0.98674      .   S
    C87    O135      0.98582      .   S
    C1     O135      0.98582      .   S
    C91    O136      0.98618      .   S
    C1     O136      0.98618      .   S
    C82    O137      0.98595      .   S
    C0     O137      0.98595      .   S
    C89    O138      0.98571      .   S
    C0     O138      0.98571      .   S
    C2     O139      0.98661      .   S
    C86    O139      0.98661      .   S
    C1     O140      0.98353      .   S
    C80    O140      0.98353      .   S
    C1     O141      0.98581      .   S
    C83    O141      0.98581      .   S
    C0     O142      0.98355      .   S
    C80    O142      0.98355      .   S
    C0     O143      0.98580      .   S
    C92    O143      0.98580      .   S
    C86    O144      0.63866      .   S
    C60    O144      0.63866      .   S
    C92    O145      0.63860      .   S
    C64    O145      0.63860      .   S
    C83    O146      0.63862      .   S
    C58    O146      0.63862      .   S
    C9     O147      0.54434      .   S
    C33    O147      0.54434      .   S
    C18    O148      0.54428      .   S
    C42    O148      0.54428      .   S
    C12    O149      0.54432      .   S
    C36    O149      0.54432      .   S
    C3     O150      0.98596      .   S
    C88    O150      0.98596      .   S
    C3     O151      0.98577      .   S
    C90    O151      0.98577      .   S
    C3     O152      0.98567      .   S
    C85    O152      0.98567      .   S
    C60    O153      0.63854      .   S
    C88    O153      0.63854      .   S
    C60    O154      0.74794      .   S
    C61    O154      0.74794      .   S
    C64    O155      0.63857      .   S
    C90    O155      0.63857      .   S
    C64    O156      0.74770      .   S
    C65    O156      0.74770      .   S
    C58    O157      0.63854      .   S
    C85    O157      0.63854      .   S
    C58    O158      0.74765      .   S
    C59    O158      0.74765      .   S
    C33    O159      0.70158      .   S
    C59    O159      0.70158      .   S
    C33    O160      0.69509  1_545   S
    C52    O160      0.69509      .   S
    C42    O161      0.70160      .   S
    C65    O161      0.70160      .   S
    C42    O162      0.69511      .   S
    C47    O162      0.69511  1_655   S
    C36    O163      0.70155      .   S
    C61    O163      0.70155      .   S
    C36    O164      0.69499  1_445   S
    C50    O164      0.69499      .   S
    C28    O165      0.54429      .   S
    C52    O165      0.54429      .   S
    C23    O166      0.54430      .   S
    C47    O166      0.54430      .   S
    C26    O167      0.54423      .   S
    C50    O167      0.54423      .   S
    C61    O168      0.70168      .   S
    C38    O168      0.70168      .   S
    C65    O169      0.70157      .   S
    C40    O169      0.70157      .   S
    C59    O170      0.70158      .   S
    C35    O170      0.70158      .   S
    C52    O171      0.70107      .   S
    C77    O171      0.70107      .   S
    C47    O172      0.70157      .   S
    C71    O172      0.70157      .   S
    C50    O173      0.70168      .   S
    C73    O173      0.70168      .   S
    C38    O174      0.54431      .   S
    C14    O174      0.54431      .   S
    C38    O175      0.69498      .   S
    C48    O175      0.69498  1_665   S
    C40    O176      0.54430      .   S
    C16    O176      0.54430      .   S
    C40    O177      0.69511      .   S
    C45    O177      0.69511  1_655   S
    C35    O178      0.54425      .   S
    C11    O178      0.54425      .   S
    C35    O179      0.69515      .   S
    C54    O179      0.69515  1_565   S
    C77    O180      0.70164      .   S
    C54    O180      0.70164      .   S
    C77    O181      0.74771      .   S
    C76    O181      0.74771      .   S
    C71    O182      0.70160      .   S
    C45    O182      0.70160      .   S
    C71    O183      0.74770      .   S
    C70    O183      0.74770      .   S
    C73    O184      0.70164      .   S
    C48    O184      0.70164      .   S
    C73    O185      0.74794      .   S
    C72    O185      0.74794      .   S
    C100   O186      0.64174      .   S
    C72    O186      0.64174      .   S
    C100   O187      0.98617      .   S
    C7     O187      0.98617      .   S
    C102   O188      0.63847      .   S
    C76    O188      0.63847      .   S
    C102   O189      0.98311      .   S
    C7     O189      0.98311      .   S
    C97    O190      0.63858      .   S
    C70    O190      0.63858      .   S
    C97    O191      0.98321      .   S
    C7     O191      0.98321      .   S
    C45    O192      0.54435      .   S
    C21    O192      0.54435      .   S
    C48    O193      0.54424      .   S
    C24    O193      0.54424      .   S
    C54    O194      0.54427      .   S
    C30    O194      0.54427      .   S
    C76    O195      0.63904      .   S
    C104   O195      0.63904      .   S
    C70    O196      0.63860      .   S
    C95    O196      0.63860      .   S
    C72    O197      0.63866      .   S
    C98    O197      0.63866      .   S
    C104   O198      0.98580      .   S
    C4     O198      0.98580      .   S
    C95    O199      0.98580      .   S
    C5     O199      0.98580      .   S
    C98    O200      0.98660      .   S
    C6     O200      0.98660      .   S
    C81    O201      0.98355      .   S
    C5     O201      0.98355      .   S
    C81    O202      0.98353      .   S
    C4     O202      0.98353      .   S
    C5     O203      0.98571      .   S
    C99    O203      0.98571      .   S
    C5     O204      0.98591      .   S
    C103   O204      0.98591      .   S
    C4     O205      0.98580      .   S
    C101   O205      0.98580      .   S
    C4     O206      0.98620      .   S
    C94    O206      0.98620      .   S
    C6     O207      0.98676      .   S
    C96    O207      0.98676      .   S
    C6     O208      0.98658      .   S
    C105   O208      0.98658      .   S
    C101   O209      0.63857      .   S
    C74    O209      0.63857      .   S
    C99    O210      0.63855      .   S
    C74    O210      0.63855      .   S
    C103   O211      0.63831      .   S
    C78    O211      0.63831      .   S
    C94    O212      0.63859      .   S
    C68    O212      0.63859      .   S
    C96    O213      0.63867      .   S
    C68    O213      0.63867      .   S
    C105   O214      0.63870      .   S
    C78    O214      0.63870      .   S
    C74    O215      0.74765      .   S
    C75    O215      0.74765      .   S
    C78    O216      0.74815      .   S
    C79    O216      0.74815      .   S
    C68    O217      0.74807      .   S
    C69    O217      0.74807      .   S
    C75    O218      0.70158      .   S
    C49    O218      0.70158      .   S
    C75    O219      0.70158      .   S
    C51    O219      0.70158      .   S
    C69    O220      0.70169      .   S
    C44    O220      0.70169      .   S
    C69    O221      0.70162      .   S
    C46    O221      0.70162      .   S
    C79    O222      0.70166      .   S
    C53    O222      0.70166      .   S
    C79    O223      0.70164      .   S
    C55    O223      0.70164      .   S
    C29    O224      0.54424      .   S
    C53    O224      0.54424      .   S
    C20    O225      0.54431      .   S
    C44    O225      0.54431      .   S
    C25    O226      0.54429      .   S
    C49    O226      0.54429      .   S
    C27    O227      0.54429      .   S
    C51    O227      0.54429      .   S
    C22    O228      0.54432      .   S
    C46    O228      0.54432      .   S
    C31    O229      0.54430      .   S
    C55    O229      0.54430      .   S
    C80    O230      0.98389      .   S
    C2     O230      0.98389      .   S
    C80    O231      0.98360      .   S
    C3     O231      0.98360      .   S
    C81    O232      0.98390      .   S
    C6     O232      0.98390      .   S
    C81    O233      0.98730      .   S
    C7     O233      0.98730      .   S
