# CIF file generated by openbabel 2.4.90, see http://openbabel.sf.net
data_I
_chemical_name_common ''
_cell_length_a 13.423
_cell_length_b 13.464
_cell_length_c 16.481
_cell_angle_alpha 89.995
_cell_angle_beta 90.02
_cell_angle_gamma 89.893
_space_group_name_H-M_alt 'P 1'
_space_group_name_Hall 'P 1'
loop_
    _symmetry_equiv_pos_as_xyz
    x,y,z
loop_
    _atom_site_label
    _atom_site_type_symbol
    _atom_site_fract_x
    _atom_site_fract_y
    _atom_site_fract_z
    _atom_site_occupancy
    Al0     Al   0.50001   0.00000   0.00000   1.000
    Al1     Al   0.25000   0.50000   0.50002   1.000
    Al2     Al   0.75004   0.50000   0.49990   1.000
    Al3     Al   0.25001   1.00000   0.99998   1.000
    Al4     Al   0.00000   0.50000   0.49999   1.000
    Al5     Al   0.50002   0.50000   0.49999   1.000
    H6      H    0.12520   0.86972   0.98723   1.000
    H7      H    0.62521   0.86987   0.98664   1.000
    H8      H    0.28501   0.30769   0.69053   1.000
    H9      H    0.78513   0.30767   0.69057   1.000
    H10     H    0.28455   0.19230   0.81070   1.000
    H11     H    0.78463   0.19230   0.81075   1.000
    H12     H    0.46556   0.30703   0.68900   1.000
    H13     H    0.96546   0.30701   0.68904   1.000
    H14     H    0.46522   0.19167   0.80921   1.000
    H15     H    0.96517   0.19162   0.80922   1.000
    H16     H    0.12482   0.63002   0.48623   1.000
    H17     H    0.62483   0.63039   0.48772   1.000
    H18     H    0.46499   0.19226   0.19040   1.000
    H19     H    0.96508   0.19220   0.19046   1.000
    H20     H    0.46533   0.30764   0.31056   1.000
    H21     H    0.96545   0.30754   0.31065   1.000
    H22     H    0.28462   0.19309   0.18910   1.000
    H23     H    0.78456   0.19306   0.18920   1.000
    H24     H    0.28483   0.30844   0.30932   1.000
    H25     H    0.78474   0.30842   0.30938   1.000
    H26     H    0.37483   0.13013   0.01334   1.000
    H27     H    0.87484   0.13028   0.01275   1.000
    H28     H    0.21491   0.69233   0.30941   1.000
    H29     H    0.71503   0.69231   0.30946   1.000
    H30     H    0.21541   0.80770   0.18923   1.000
    Al31    Al   0.00000   0.00000   0.00000   1.000
    H32     H    0.71549   0.80769   0.18927   1.000
    H33     H    0.03458   0.69299   0.31094   1.000
    H34     H    0.53448   0.69297   0.31090   1.000
    H35     H    0.03487   0.80837   0.19077   1.000
    H36     H    0.53482   0.80833   0.19078   1.000
    H37     H    0.37521   0.36961   0.51227   1.000
    H38     H    0.87522   0.36997   0.51375   1.000
    H39     H    0.03496   0.80780   0.80952   1.000
    H40     H    0.53505   0.80774   0.80958   1.000
    H41     H    0.03459   0.69245   0.68934   1.000
    H42     H    0.53471   0.69236   0.68943   1.000
    H43     H    0.21548   0.80694   0.81079   1.000
    H44     H    0.71542   0.80690   0.81084   1.000
    H45     H    0.21530   0.69158   0.69060   1.000
    H46     H    0.71521   0.69155   0.69060   1.000
    C47     C    0.12527   0.38171   0.61121   1.000
    C48     C    0.62542   0.38169   0.61119   1.000
    C49     C    0.12523   0.31340   0.68262   1.000
    C50     C    0.62536   0.31340   0.68262   1.000
    C51     C    0.21550   0.28147   0.71684   1.000
    C52     C    0.71561   0.28147   0.71680   1.000
    C53     C    0.12474   0.11792   0.88860   1.000
    C54     C    0.62480   0.11794   0.88860   1.000
    C55     C    0.12484   0.18575   0.81674   1.000
    C56     C    0.62491   0.18577   0.81675   1.000
    C57     C    0.21531   0.21801   0.78339   1.000
    C58     C    0.71540   0.21801   0.78342   1.000
    C59     C    0.03478   0.28109   0.71602   1.000
    C60     C    0.53489   0.28110   0.71601   1.000
    C61     C    0.03455   0.21762   0.78257   1.000
    C62     C    0.53464   0.21765   0.78256   1.000
    C63     C    0.12480   0.11830   0.11120   1.000
    C64     C    0.62475   0.11830   0.11121   1.000
    C65     C    0.12483   0.18659   0.18263   1.000
    C66     C    0.62477   0.18660   0.18263   1.000
    C67     C    0.03455   0.21845   0.21681   1.000
    C68     C    0.53448   0.21850   0.21677   1.000
    C69     C    0.12522   0.38205   0.38862   1.000
    C70     C    0.62511   0.38209   0.38860   1.000
    C71     C    0.12514   0.31422   0.31676   1.000
    C72     C    0.62504   0.31425   0.31675   1.000
    C73     C    0.03469   0.28190   0.28330   1.000
    C74     C    0.53460   0.28196   0.28332   1.000
    C75     C    0.21526   0.21895   0.21609   1.000
    C76     C    0.71519   0.21894   0.21611   1.000
    C77     C    0.21544   0.28240   0.28263   1.000
    C78     C    0.71535   0.28240   0.28266   1.000
    C79     C    0.37462   0.61831   0.38879   1.000
    C80     C    0.87477   0.61828   0.38877   1.000
    C81     C    0.37468   0.68660   0.31737   1.000
    C82     C    0.87481   0.68659   0.31730   1.000
    C83     C    0.28443   0.71853   0.28312   1.000
    C84     C    0.78454   0.71852   0.28314   1.000
    C85     C    0.37524   0.88206   0.11137   1.000
    C86     C    0.87530   0.88208   0.11138   1.000
    C87     C    0.37513   0.81423   0.18323   1.000
    C88     C    0.87520   0.81425   0.18324   1.000
    C89     C    0.28464   0.78199   0.21657   1.000
    C90     C    0.78473   0.78199   0.21659   1.000
    C91     C    0.46515   0.71890   0.28398   1.000
    C92     C    0.96526   0.71891   0.28396   1.000
    C93     C    0.46540   0.78235   0.21742   1.000
    C94     C    0.96549   0.78238   0.21742   1.000
    C95     C    0.37529   0.88170   0.88877   1.000
    C96     C    0.87524   0.88169   0.88878   1.000
    C97     C    0.37527   0.81340   0.81736   1.000
    C98     C    0.87521   0.81341   0.81736   1.000
    C99     C    0.46556   0.78150   0.78321   1.000
    C100    C    0.96549   0.78155   0.78317   1.000
    C101    C    0.37493   0.61791   0.61138   1.000
    C102    C    0.87482   0.61795   0.61136   1.000
    C103    C    0.37500   0.68575   0.68320   1.000
    C104    C    0.87490   0.68578   0.68322   1.000
    C105    C    0.46544   0.71803   0.71667   1.000
    C106    C    0.96535   0.71810   0.71662   1.000
    C107    C    0.28485   0.78105   0.78387   1.000
    C108    C    0.78478   0.78104   0.78390   1.000
    C109    C    0.28469   0.71760   0.71733   1.000
    C110    C    0.78460   0.71759   0.71735   1.000
    O111    O    0.12512   0.94003   0.00000   1.000
    O112    O    0.62513   0.94001   0.00000   1.000
    O113    O    0.04009   0.09223   0.91650   1.000
    O114    O    0.54016   0.09223   0.91650   1.000
    O115    O    0.04072   0.40808   0.58320   1.000
    O116    O    0.54088   0.40806   0.58318   1.000
    O117    O    0.20940   0.09209   0.91660   1.000
    O118    O    0.70946   0.09212   0.91663   1.000
    O119    O    0.20977   0.40802   0.58331   1.000
    O120    O    0.70995   0.40793   0.58320   1.000
    O121    O    0.12491   0.56000   0.50005   1.000
    O122    O    0.62493   0.55994   0.49998   1.000
    O123    O    0.20988   0.40773   0.41655   1.000
    O124    O    0.70974   0.40782   0.41651   1.000
    O125    O    0.20935   0.09196   0.08321   1.000
    O126    O    0.70929   0.09194   0.08323   1.000
    O127    O    0.04057   0.40789   0.41658   1.000
    O128    O    0.54044   0.40788   0.41659   1.000
    O129    O    0.04029   0.09202   0.08327   1.000
    O130    O    0.54023   0.09201   0.08327   1.000
    O131    O    0.37491   0.05999   0.99995   1.000
    O132    O    0.87492   0.05997   0.99998   1.000
    O133    O    0.45988   0.90776   0.08349   1.000
    O134    O    0.95994   0.90776   0.08348   1.000
    O135    O    0.45916   0.59194   0.41680   1.000
    O136    O    0.95932   0.59192   0.41679   1.000
    O137    O    0.29058   0.90787   0.08336   1.000
    O138    O    0.79064   0.90791   0.08338   1.000
    O139    O    0.29009   0.59206   0.41671   1.000
    O140    O    0.79027   0.59198   0.41668   1.000
    O141    O    0.37511   0.44005   0.50000   1.000
    O142    O    0.87513   0.43999   0.49993   1.000
    O143    O    0.29030   0.59217   0.58347   1.000
    O144    O    0.79016   0.59226   0.58343   1.000
    O145    O    0.29075   0.90806   0.91675   1.000
    O146    O    0.79069   0.90804   0.91677   1.000
    O147    O    0.45960   0.59212   0.58339   1.000
    O148    O    0.95947   0.59211   0.58340   1.000
    O149    O    0.45981   0.90799   0.91670   1.000
    O150    O    0.95975   0.90798   0.91672   1.000
loop_
    _geom_bond_atom_site_label_1
    _geom_bond_atom_site_label_2
    _geom_bond_distance
    _geom_bond_site_symmetry_2
    _ccdc_geom_bond_type
    Al0    O112      1.86221  1_545   S
    Al0    O130      1.92662      .   S
    Al0    O133      1.93093  1_545   S
    Al0    O114      1.93108  1_554   S
    Al0    O149      1.92695  1_544   S
    Al0    O131      1.86201  1_554   S
    Al31   O129      1.92693      .   S
    Al31   O134      1.93053  1_445   S
    Al31   O113      1.93089  1_554   S
    Al31   O150      1.92693  1_444   S
    Al31   O132      1.86163  1_454   S
    O111   H6        0.96978  1_554   S
    O111   Al3       1.86210  1_554   S
    O112   H7        0.96970  1_554   S
    H27    O132      0.96978  1_554   S
    H26    O131      0.96980  1_554   S
    O125   C63       1.27490      .   S
    O125   Al3       1.92638  1_544   S
    O126   C64       1.27481      .   S
    O130   C64       1.27498      .   S
    O129   C63       1.27489      .   S
    O137   C85       1.27419      .   S
    O137   Al3       1.92874  1_554   S
    O138   C86       1.27411      .   S
    O134   C86       1.27427      .   S
    O133   C85       1.27419      .   S
    C63    C65       1.49374      .   S
    C64    C66       1.49378      .   S
    C85    C87       1.49547      .   S
    C86    C88       1.49552      .   S
    C66    C76       1.40310      .   S
    C66    C68       1.40309      .   S
    C65    C75       1.40314      .   S
    C65    C67       1.40311      .   S
    C87    C89       1.40285      .   S
    C87    C93       1.40269      .   S
    C88    C90       1.40284      .   S
    C88    C94       1.40272      .   S
    H22    C75       1.08865      .   S
    H23    C76       1.08829      .   S
    H30    C89       1.08857      .   S
    H32    C90       1.08852      .   S
    H18    C68       1.08836      .   S
    H19    C67       1.08809  1_655   S
    H35    C94       1.08825  1_455   S
    H36    C93       1.08849      .   S
    C75    C77       1.39019      .   S
    C76    C78       1.39038      .   S
    C89    C83       1.39027      .   S
    C90    C84       1.39034      .   S
    C68    C74       1.39045      .   S
    C67    C73       1.38955      .   S
    C94    C92       1.39021      .   S
    C93    C91       1.39036      .   S
    C77    H24       1.08853      .   S
    C77    C71       1.40271      .   S
    C78    H25       1.08852      .   S
    C78    C72       1.40272      .   S
    C83    H28       1.08833      .   S
    C83    C81       1.40310      .   S
    C84    H29       1.08842      .   S
    C84    C82       1.40271      .   S
    C73    H21       1.08872  1_455   S
    C73    C71       1.40324      .   S
    C74    H20       1.08852      .   S
    C74    C72       1.40280      .   S
    C92    H33       1.08804  1_655   S
    C92    C82       1.40272      .   S
    C91    H34       1.08774      .   S
    C91    C81       1.40315      .   S
    C72    C70       1.49554      .   S
    C71    C69       1.49564      .   S
    C82    C80       1.49437      .   S
    C81    C79       1.49355      .   S
    C70    O124      1.27411      .   S
    C70    O128      1.27426      .   S
    C69    O123      1.27436      .   S
    C69    O127      1.27407      .   S
    C80    O140      1.27488      .   S
    C80    O136      1.27498      .   S
    C79    O139      1.27510      .   S
    C79    O135      1.27479      .   S
    O124   Al2       1.92974      .   S
    O123   Al1       1.93083      .   S
    O127   Al4       1.92943      .   S
    O128   Al5       1.92884      .   S
    O140   Al2       1.92596      .   S
    O139   Al1       1.92712      .   S
    O136   Al4       1.92529  1_655   S
    O135   Al5       1.92606      .   S
    H16    O121      0.96984      .   S
    H17    O122      0.96975      .   S
    Al2    O142      1.86203      .   S
    Al2    O122      1.86187      .   S
    Al2    O120      1.92701      .   S
    Al2    O144      1.93153      .   S
    O142   H38       0.96984      .   S
    Al4    O115      1.92555      .   S
    Al4    O148      1.92930  1_455   S
    Al5    O116      1.92606      .   S
    Al5    O147      1.92883      .   S
    O141   Al1       1.86187      .   S
    O141   H37       0.96977      .   S
    Al1    O121      1.86203      .   S
    Al1    O119      1.92679      .   S
    Al1    O143      1.93044      .   S
    O116   C48       1.27478      .   S
    O115   C47       1.27492      .   S
    O120   C48       1.27553      .   S
    O119   C47       1.27480      .   S
    O147   C101      1.27427      .   S
    O148   C102      1.27408      .   S
    O144   C102      1.27434      .   S
    O143   C101      1.27411      .   S
    C48    C50       1.49369      .   S
    C47    C49       1.49360      .   S
    C102   C104      1.49566      .   S
    C101   C103      1.49515      .   S
    C50    C60       1.40314      .   S
    C50    C52       1.40264      .   S
    C49    C59       1.40310      .   S
    C49    C51       1.40310      .   S
    C103   C105      1.40305      .   S
    C103   C109      1.40299      .   S
    C104   C106      1.40285      .   S
    C104   C110      1.40271      .   S
    H12    C60       1.08835      .   S
    H13    C59       1.08805  1_655   S
    H41    C106      1.08825  1_455   S
    H42    C105      1.08852      .   S
    H8     C51       1.08836      .   S
    H9     C52       1.08792      .   S
    H46    C110      1.08893      .   S
    H45    C109      1.08859      .   S
    C60    C62       1.39021      .   S
    C59    C61       1.39033      .   S
    C106   C100      1.39032      .   S
    C105   C99       1.39031      .   S
    C52    C58       1.39117      .   S
    C51    C57       1.39034      .   S
    C109   C107      1.39024      .   S
    C110   C108      1.39031      .   S
    C62    H14       1.08857      .   S
    C62    C56       1.40269      .   S
    C61    H15       1.08825  1_455   S
    C61    C55       1.40265      .   S
    C100   H39       1.08809  1_655   S
    C100   C98       1.40317      .   S
    C99    H40       1.08837      .   S
    C99    C97       1.40314      .   S
    C57    H10       1.08845      .   S
    C57    C55       1.40284      .   S
    C58    H11       1.08850      .   S
    C58    C56       1.40279      .   S
    C107   H43       1.08837      .   S
    C107   C97       1.40316      .   S
    C108   H44       1.08832      .   S
    C108   C98       1.40314      .   S
    C55    C53       1.49552      .   S
    C56    C54       1.49535      .   S
    C97    C95       1.49365      .   S
    C98    C96       1.49362      .   S
    C53    O113      1.27427      .   S
    C53    O117      1.27411      .   S
    C54    O114      1.27431      .   S
    C54    O118      1.27431      .   S
    C95    O149      1.27491      .   S
    C95    O145      1.27481      .   S
    C96    O150      1.27495      .   S
    C96    O146      1.27490      .   S
    O117   Al3       1.92863  1_545   S
    O145   Al3       1.92644      .   S
    O111   Al31      1.86212  1_565   S
    O121   Al4       1.86252      .   S
    O122   Al5       1.86215      .   S
    O131   Al3       1.86231  1_545   S
    O141   Al5       1.86213      .   S
    O142   Al4       1.86204  1_655   S
