# CIF file generated by openbabel 2.4.90, see http://openbabel.sf.net
data_I
_chemical_name_common ''
_cell_length_a 13.423
_cell_length_b 13.464
_cell_length_c 16.481
_cell_angle_alpha 89.995
_cell_angle_beta 90.02
_cell_angle_gamma 89.893
_space_group_name_H-M_alt 'P 1'
_space_group_name_Hall 'P 1'
loop_
    _symmetry_equiv_pos_as_xyz
    x,y,z
loop_
    _atom_site_label
    _atom_site_type_symbol
    _atom_site_fract_x
    _atom_site_fract_y
    _atom_site_fract_z
    _atom_site_occupancy
    H0      H    0.12482   0.63002   0.48623   1.000
    H1      H    0.62483   0.63039   0.48772   1.000
    H2      H    0.37521   0.36961   0.51227   1.000
    H3      H    0.87522   0.36997   0.51375   1.000
    C4      C    0.12527   0.38171   0.61121   1.000
    C5      C    0.62542   0.38169   0.61119   1.000
    C6      C    0.12522   0.38205   0.38862   1.000
    C7      C    0.62511   0.38209   0.38860   1.000
    C8      C    0.37462   0.61831   0.38879   1.000
    C9      C    0.87477   0.61828   0.38877   1.000
    C10     C    0.37493   0.61791   0.61138   1.000
    C11     C    0.87482   0.61795   0.61136   1.000
    O12     O    0.04072   0.40808   0.58320   1.000
    O13     O    0.54088   0.40806   0.58318   1.000
    O14     O    0.20977   0.40802   0.58331   1.000
    O15     O    0.70995   0.40793   0.58320   1.000
    O16     O    0.12491   0.56000   0.50005   1.000
    O17     O    0.62493   0.55994   0.49998   1.000
    O18     O    0.20988   0.40773   0.41655   1.000
    O19     O    0.70974   0.40782   0.41651   1.000
    O20     O    0.04057   0.40789   0.41658   1.000
    O21     O    0.54044   0.40788   0.41659   1.000
    O22     O    0.45916   0.59194   0.41680   1.000
    O23     O    0.95932   0.59192   0.41679   1.000
    O24     O    0.29009   0.59206   0.41671   1.000
    O25     O    0.79027   0.59198   0.41668   1.000
    O26     O    0.37511   0.44005   0.50000   1.000
    O27     O    0.87513   0.43999   0.49993   1.000
    O28     O    0.29030   0.59217   0.58347   1.000
    O29     O    0.79016   0.59226   0.58343   1.000
    O30     O    0.45960   0.59212   0.58339   1.000
    O31     O    0.95947   0.59211   0.58340   1.000
loop_
    _geom_bond_atom_site_label_1
    _geom_bond_atom_site_label_2
    _geom_bond_distance
    _geom_bond_site_symmetry_2
    _ccdc_geom_bond_type
    C7     O19       1.27411      .   S
    C7     O21       1.27426      .   S
    C6     O18       1.27436      .   S
    C6     O20       1.27407      .   S
    C9     O25       1.27488      .   S
    C9     O23       1.27498      .   S
    C8     O24       1.27510      .   S
    C8     O22       1.27479      .   S
    H0     O16       0.96984      .   S
    H1     O17       0.96975      .   S
    O27    H3        0.96984      .   S
    O26    H2        0.96977      .   S
    O13    C5        1.27478      .   S
    O12    C4        1.27492      .   S
    O15    C5        1.27553      .   S
    O14    C4        1.27480      .   S
    O30    C10       1.27427      .   S
    O31    C11       1.27408      .   S
    O29    C11       1.27434      .   S
    O28    C10       1.27411      .   S
