# CIF file generated by openbabel 2.4.90, see http://openbabel.sf.net
data_I
_chemical_name_common ''
_cell_length_a 13.423
_cell_length_b 13.464
_cell_length_c 16.481
_cell_angle_alpha 89.995
_cell_angle_beta 90.02
_cell_angle_gamma 89.893
_space_group_name_H-M_alt 'P 1'
_space_group_name_Hall 'P 1'
loop_
    _symmetry_equiv_pos_as_xyz
    x,y,z
loop_
    _atom_site_label
    _atom_site_type_symbol
    _atom_site_fract_x
    _atom_site_fract_y
    _atom_site_fract_z
    _atom_site_occupancy
    Al0     Al   0.50001   0.00000   0.00000   1.000
    Al1     Al   0.25000   0.50000   0.50002   1.000
    Al2     Al   0.75004   0.50000   0.49990   1.000
    Al3     Al   0.25001   1.00000   0.99998   1.000
    Al4     Al   0.00000   0.50000   0.49999   1.000
    Al5     Al   0.50002   0.50000   0.49999   1.000
    H6      H    0.12520   0.86972   0.98723   1.000
    H7      H    0.62521   0.86987   0.98664   1.000
    H8      H    0.37483   0.13013   0.01334   1.000
    H9      H    0.87484   0.13028   0.01275   1.000
    Al10    Al   0.00000   0.00000   0.00000   1.000
    C11     C    0.12474   0.11792   0.88860   1.000
    C12     C    0.62480   0.11794   0.88860   1.000
    C13     C    0.12480   0.11830   0.11120   1.000
    C14     C    0.62475   0.11830   0.11121   1.000
    C15     C    0.37524   0.88206   0.11137   1.000
    C16     C    0.87530   0.88208   0.11138   1.000
    C17     C    0.37529   0.88170   0.88877   1.000
    C18     C    0.87524   0.88169   0.88878   1.000
    O19     O    0.12512   0.94003   0.00000   1.000
    O20     O    0.62513   0.94001   0.00000   1.000
    O21     O    0.04009   0.09223   0.91650   1.000
    O22     O    0.54016   0.09223   0.91650   1.000
    O23     O    0.20940   0.09209   0.91660   1.000
    O24     O    0.70946   0.09212   0.91663   1.000
    O25     O    0.20935   0.09196   0.08321   1.000
    O26     O    0.70929   0.09194   0.08323   1.000
    O27     O    0.04029   0.09202   0.08327   1.000
    O28     O    0.54023   0.09201   0.08327   1.000
    O29     O    0.37491   0.05999   0.99995   1.000
    O30     O    0.87492   0.05997   0.99998   1.000
    O31     O    0.45988   0.90776   0.08349   1.000
    O32     O    0.95994   0.90776   0.08348   1.000
    O33     O    0.29058   0.90787   0.08336   1.000
    O34     O    0.79064   0.90791   0.08338   1.000
    O35     O    0.29075   0.90806   0.91675   1.000
    O36     O    0.79069   0.90804   0.91677   1.000
    O37     O    0.45981   0.90799   0.91670   1.000
    O38     O    0.95975   0.90798   0.91672   1.000
loop_
    _geom_bond_atom_site_label_1
    _geom_bond_atom_site_label_2
    _geom_bond_distance
    _geom_bond_site_symmetry_2
    _ccdc_geom_bond_type
    Al0    O20       1.86221  1_545   S
    Al0    O28       1.92662      .   S
    Al0    O31       1.93093  1_545   S
    Al0    O22       1.93108  1_554   S
    Al0    O37       1.92695  1_544   S
    Al0    O29       1.86201  1_554   S
    Al10   O27       1.92693      .   S
    Al10   O32       1.93053  1_445   S
    Al10   O21       1.93089  1_554   S
    Al10   O38       1.92693  1_444   S
    Al10   O30       1.86163  1_454   S
    O19    H6        0.96978  1_554   S
    O19    Al3       1.86210  1_554   S
    O20    H7        0.96970  1_554   S
    H9     O30       0.96978  1_554   S
    H8     O29       0.96980  1_554   S
    O25    C13       1.27490      .   S
    O25    Al3       1.92638  1_544   S
    O26    C14       1.27481      .   S
    O28    C14       1.27498      .   S
    O27    C13       1.27489      .   S
    O33    C15       1.27419      .   S
    O33    Al3       1.92874  1_554   S
    O34    C16       1.27411      .   S
    O32    C16       1.27427      .   S
    O31    C15       1.27419      .   S
    C11    O21       1.27427      .   S
    C11    O23       1.27411      .   S
    C12    O22       1.27431      .   S
    C12    O24       1.27431      .   S
    C17    O37       1.27491      .   S
    C17    O35       1.27481      .   S
    C18    O38       1.27495      .   S
    C18    O36       1.27490      .   S
    O23    Al3       1.92863  1_545   S
    O35    Al3       1.92644      .   S
    O19    Al10      1.86212  1_565   S
    O29    Al3       1.86231  1_545   S
