# CIF file generated by openbabel 2.4.90, see http://openbabel.sf.net
data_I
_chemical_name_common ''
_cell_length_a 13.423
_cell_length_b 13.464
_cell_length_c 16.481
_cell_angle_alpha 89.995
_cell_angle_beta 90.02
_cell_angle_gamma 89.893
_space_group_name_H-M_alt 'P 1'
_space_group_name_Hall 'P 1'
loop_
    _symmetry_equiv_pos_as_xyz
    x,y,z
loop_
    _atom_site_label
    _atom_site_type_symbol
    _atom_site_fract_x
    _atom_site_fract_y
    _atom_site_fract_z
    _atom_site_occupancy
    Zr0     Zr   0.00000   0.00000   0.00000   1.000
    Zr1     Zr   0.50001   0.00000   0.00000   1.000
    Zr2     Zr   0.25000   0.50000   0.50002   1.000
    Zr3     Zr   0.75004   0.50000   0.49990   1.000
    Zr4     Zr   0.25001   1.00000   0.99998   1.000
    Zr5     Zr   0.75001   0.00000   0.40000   1.000
    Zr6     Zr   0.00000   0.50000   0.49999   1.000
    Zr7     Zr   0.50002   0.50000   0.49999   1.000
    Zr8     Zr   0.12520   0.86972   0.98723   1.000
    Zr9     Zr   0.62521   0.86987   0.98664   1.000
    Zr10    Zr   0.12482   0.63002   0.48623   1.000
    Zr11    Zr   0.62483   0.63039   0.48772   1.000
    Zr12    Zr   0.37483   0.13013   0.01334   1.000
    Zr13    Zr   0.87484   0.13028   0.01275   1.000
    Zr14    Zr   0.37521   0.36961   0.51227   1.000
    Zr15    Zr   0.87522   0.36997   0.51375   1.000
    Zr16    Zr   0.12527   0.38171   0.61121   1.000
    Zr17    Zr   0.62542   0.38169   0.61119   1.000
    Zr18    Zr   0.12474   0.11792   0.88860   1.000
    Zr19    Zr   0.62480   0.11794   0.88860   1.000
    Zr20    Zr   0.12480   0.11830   0.11120   1.000
    Zr21    Zr   0.62475   0.11830   0.11121   1.000
    Zr22    Zr   0.12522   0.38205   0.38862   1.000
    Zr23    Zr   0.62511   0.38209   0.38860   1.000
    Zr24    Zr   0.37462   0.61831   0.38879   1.000
    Zr25    Zr   0.87477   0.61828   0.38877   1.000
    Zr26    Zr   0.37524   0.88206   0.11137   1.000
    Zr27    Zr   0.87530   0.88208   0.11138   1.000
    Zr28    Zr   0.37529   0.88170   0.88877   1.000
    Zr29    Zr   0.87524   0.88169   0.88878   1.000
    Zr30    Zr   0.37493   0.61791   0.61138   1.000
    Zr31    Zr   0.87482   0.61795   0.61136   1.000
    Zr32    Zr   0.12512   0.94003   0.00000   1.000
    Zr33    Zr   0.62513   0.94001   0.00000   1.000
    Zr34    Zr   0.04009   0.09223   0.91650   1.000
    Zr35    Zr   0.54016   0.09223   0.91650   1.000
    Zr36    Zr   0.04072   0.40808   0.58320   1.000
    Zr37    Zr   0.54088   0.40806   0.58318   1.000
    Zr38    Zr   0.20940   0.09209   0.91660   1.000
    Zr39    Zr   0.70946   0.09212   0.91663   1.000
    Zr40    Zr   0.20977   0.40802   0.58331   1.000
    Zr41    Zr   0.70995   0.40793   0.58320   1.000
    Zr42    Zr   0.12491   0.56000   0.50005   1.000
    Zr43    Zr   0.62493   0.55994   0.49998   1.000
    Zr44    Zr   0.20988   0.40773   0.41655   1.000
    Zr45    Zr   0.70974   0.40782   0.41651   1.000
    Zr46    Zr   0.20935   0.09196   0.08321   1.000
    Zr47    Zr   0.70929   0.09194   0.08323   1.000
    Zr48    Zr   0.04057   0.40789   0.41658   1.000
    Zr49    Zr   0.54044   0.40788   0.41659   1.000
    Zr50    Zr   0.04029   0.09202   0.08327   1.000
    Zr51    Zr   0.54023   0.09201   0.08327   1.000
    Zr52    Zr   0.37491   0.05999   0.99995   1.000
    Zr53    Zr   0.87492   0.05997   0.99998   1.000
    Zr54    Zr   0.45988   0.90776   0.08349   1.000
    Zr55    Zr   0.95994   0.90776   0.08348   1.000
    Zr56    Zr   0.45916   0.59194   0.41680   1.000
    Zr57    Zr   0.95932   0.59192   0.41679   1.000
    Zr58    Zr   0.29058   0.90787   0.08336   1.000
    Zr59    Zr   0.79064   0.90791   0.08338   1.000
    Zr60    Zr   0.29009   0.59206   0.41671   1.000
    Zr61    Zr   0.79027   0.59198   0.41668   1.000
    Zr62    Zr   0.37511   0.44005   0.50000   1.000
    Zr63    Zr   0.87513   0.43999   0.49993   1.000
    Zr64    Zr   0.29030   0.59217   0.58347   1.000
    Zr65    Zr   0.79016   0.59226   0.58343   1.000
    Zr66    Zr   0.29075   0.90806   0.91675   1.000
    Zr67    Zr   0.79069   0.90804   0.91677   1.000
    Zr68    Zr   0.45960   0.59212   0.58339   1.000
    Zr69    Zr   0.95947   0.59211   0.58340   1.000
    Zr70    Zr   0.45981   0.90799   0.91670   1.000
    Zr71    Zr   0.95975   0.90798   0.91672   1.000
    O72     O    0.56257   0.97000   0.00000   1.000
    O73     O    0.52012   0.04601   0.04164   1.000
    O74     O    0.47995   0.95388   0.04174   1.000
    O75     O    0.52008   0.04612   0.95825   1.000
    O76     O    0.47991   0.95399   0.95835   1.000
    O77     O    0.43746   0.02999   0.99997   1.000
    O78     O    0.02014   0.04601   0.04164   1.000
    O79     O    0.97997   0.95388   0.04174   1.000
    O80     O    0.02005   0.04612   0.95825   1.000
    O81     O    0.97988   0.95399   0.95836   1.000
    O82     O    0.93746   0.02998   0.99999   1.000
    O83     O    0.12516   0.90487   0.99361   1.000
    O84     O    0.18756   0.97001   0.99999   1.000
    O85     O    0.62517   0.90494   0.99332   1.000
    O86     O    0.87488   0.09512   0.00637   1.000
    O87     O    0.37487   0.09506   0.00664   1.000
    O88     O    0.16707   0.10513   0.09721   1.000
    O89     O    0.22968   0.04598   0.04160   1.000
    O90     O    0.66702   0.10512   0.09722   1.000
    O91     O    0.58249   0.10515   0.09724   1.000
    O92     O    0.08254   0.10516   0.09724   1.000
    O93     O    0.33291   0.89497   0.09736   1.000
    O94     O    0.27029   0.95394   0.04167   1.000
    O95     O    0.83297   0.89499   0.09738   1.000
    O96     O    0.91762   0.89492   0.09743   1.000
    O97     O    0.41756   0.89491   0.09743   1.000
    O98     O    0.66742   0.39495   0.40256   1.000
    O99     O    0.58277   0.39498   0.40259   1.000
    O100    O    0.16755   0.39489   0.40258   1.000
    O101    O    0.08290   0.39497   0.40260   1.000
    O102    O    0.83252   0.60513   0.40273   1.000
    O103    O    0.91705   0.60510   0.40278   1.000
    O104    O    0.33235   0.60519   0.40275   1.000
    O105    O    0.41689   0.60513   0.40280   1.000
    O106    O    0.72989   0.45391   0.45821   1.000
    O107    O    0.22994   0.45387   0.45828   1.000
    O108    O    0.02029   0.45394   0.45828   1.000
    O109    O    0.52023   0.45394   0.45829   1.000
    O110    O    0.77015   0.54599   0.45829   1.000
    O111    O    0.27004   0.54603   0.45837   1.000
    O112    O    0.97966   0.54596   0.45839   1.000
    O113    O    0.47959   0.54597   0.45840   1.000
    O114    O    0.12486   0.59501   0.49314   1.000
    O115    O    0.62488   0.59517   0.49385   1.000
    O116    O    0.81258   0.46999   0.49992   1.000
    O117    O    0.68748   0.52997   0.49994   1.000
    O118    O    0.73000   0.45397   0.54155   1.000
    O119    O    0.77010   0.54613   0.54166   1.000
    O120    O    0.87518   0.40498   0.50684   1.000
    O121    O    0.02036   0.45404   0.54160   1.000
    O122    O    0.97973   0.54605   0.54170   1.000
    O123    O    0.52045   0.45403   0.54158   1.000
    O124    O    0.47981   0.54606   0.54169   1.000
    O125    O    0.31256   0.47003   0.50001   1.000
    O126    O    0.37516   0.40483   0.50614   1.000
    O127    O    0.18746   0.53000   0.50004   1.000
    O128    O    0.22989   0.45401   0.54166   1.000
    O129    O    0.27015   0.54609   0.54175   1.000
    O130    O    0.58315   0.39487   0.59719   1.000
    O131    O    0.08299   0.39490   0.59720   1.000
    O132    O    0.66769   0.39481   0.59720   1.000
    O133    O    0.16752   0.39487   0.59726   1.000
    O134    O    0.41727   0.60502   0.59739   1.000
    O135    O    0.91714   0.60503   0.59738   1.000
    O136    O    0.83249   0.60511   0.59740   1.000
    O137    O    0.33262   0.60504   0.59743   1.000
    O138    O    0.08242   0.10508   0.90255   1.000
    O139    O    0.16707   0.10500   0.90260   1.000
    O140    O    0.58248   0.10509   0.90255   1.000
    O141    O    0.66713   0.10503   0.90261   1.000
    O142    O    0.41755   0.89484   0.90274   1.000
    O143    O    0.33302   0.89488   0.90276   1.000
    O144    O    0.91750   0.89484   0.90275   1.000
    O145    O    0.83296   0.89486   0.90278   1.000
    O146    O    0.22970   0.04604   0.95829   1.000
    O147    O    0.27038   0.95403   0.95837   1.000
    O148    O    0.06256   0.97001   0.00000   1.000
    O149    O    0.06245   0.53000   0.50002   1.000
    O150    O    0.56247   0.52997   0.49999   1.000
    O151    O    0.31246   0.02999   0.99996   1.000
    O152    O    0.43757   0.47003   0.50000   1.000
    O153    O    0.93757   0.47000   0.49996   1.000
    N154    N    0.37513   0.74959   0.75020   1.000
    O155    O    0.37521   0.79857   0.80163   1.000
    O156    O    0.37505   0.70071   0.69875   1.000
    N157    N    0.87505   0.74962   0.75019   1.000
    O158    O    0.87514   0.79858   0.80163   1.000
    O159    O    0.87495   0.70074   0.69874   1.000
    N160    N    0.87500   0.75040   0.25021   1.000
    O161    O    0.87489   0.70142   0.30162   1.000
    O162    O    0.87513   0.79928   0.19876   1.000
    N163    N    0.12499   0.25038   0.24977   1.000
    O164    O    0.12490   0.20141   0.19834   1.000
    O165    O    0.12508   0.29926   0.30123   1.000
    N166    N    0.12504   0.24960   0.74977   1.000
    O167    O    0.12514   0.29858   0.69834   1.000
    O168    O    0.12491   0.20072   0.80122   1.000
    N169    N    0.37490   0.75039   0.25020   1.000
    O170    O    0.37504   0.79927   0.19875   1.000
    O171    O    0.37478   0.70142   0.30164   1.000
    N172    N    0.62491   0.25040   0.24978   1.000
    O173    O    0.62499   0.29928   0.30123   1.000
    O174    O    0.62483   0.20143   0.19835   1.000
    N175    N    0.62513   0.24960   0.74977   1.000
    O176    O    0.62499   0.20073   0.80122   1.000
    O177    O    0.62526   0.29857   0.69834   1.000
loop_
    _geom_bond_atom_site_label_1
    _geom_bond_atom_site_label_2
    _geom_bond_distance
    _geom_bond_site_symmetry_2
    _ccdc_geom_bond_type
    Zr1    O72       0.93111  1_545   S
    Zr33   O72       0.93111      .   S
    Zr1    O73       0.96331      .   S
    Zr51   O73       0.96331      .   S
    Zr1    O74       0.96546  1_545   S
    Zr54   O74       0.96546      .   S
    Zr1    O75       0.96554  1_554   S
    Zr35   O75       0.96554      .   S
    Zr1    O76       0.96347  1_544   S
    Zr70   O76       0.96347      .   S
    Zr1    O77       0.93101  1_554   S
    Zr52   O77       0.93101      .   S
    Zr0    O78       0.96347      .   S
    Zr50   O78       0.96347      .   S
    Zr0    O79       0.96527  1_445   S
    Zr55   O79       0.96527      .   S
    Zr0    O80       0.96544  1_554   S
    Zr34   O80       0.96544      .   S
    Zr0    O81       0.96347  1_444   S
    Zr71   O81       0.96347      .   S
    Zr0    O82       0.93082  1_454   S
    Zr53   O82       0.93082      .   S
    Zr32   O83       0.48489  1_554   S
    Zr8    O83       0.48489      .   S
    Zr32   O84       0.93105  1_554   S
    Zr4    O84       0.93105      .   S
    Zr33   O85       0.48485  1_554   S
    Zr9    O85       0.48485      .   S
    Zr13   O86       0.48489      .   S
    Zr53   O86       0.48489  1_556   S
    Zr12   O87       0.48490      .   S
    Zr52   O87       0.48490  1_556   S
    Zr46   O88       0.63745      .   S
    Zr20   O88       0.63745      .   S
    Zr46   O89       0.96319      .   S
    Zr4    O89       0.96319  1_566   S
    Zr47   O90       0.63741      .   S
    Zr21   O90       0.63741      .   S
    Zr51   O91       0.63749      .   S
    Zr21   O91       0.63749      .   S
    Zr50   O92       0.63744      .   S
    Zr20   O92       0.63744      .   S
    Zr58   O93       0.63709      .   S
    Zr26   O93       0.63709      .   S
    Zr58   O94       0.96437      .   S
    Zr4    O94       0.96437  1_556   S
    Zr59   O95       0.63705      .   S
    Zr27   O95       0.63705      .   S
    Zr55   O96       0.63713      .   S
    Zr27   O96       0.63713      .   S
    Zr54   O97       0.63710      .   S
    Zr26   O97       0.63710      .   S
    Zr23   O98       0.63706      .   S
    Zr45   O98       0.63706      .   S
    Zr23   O99       0.63713      .   S
    Zr49   O99       0.63713      .   S
    Zr22   O100      0.63718      .   S
    Zr44   O100      0.63718      .   S
    Zr22   O101      0.63704      .   S
    Zr48   O101      0.63704      .   S
    Zr25   O102      0.63744      .   S
    Zr61   O102      0.63744      .   S
    Zr25   O103      0.63749      .   S
    Zr57   O103      0.63749      .   S
    Zr24   O104      0.63755      .   S
    Zr60   O104      0.63755      .   S
    Zr24   O105      0.63740      .   S
    Zr56   O105      0.63740      .   S
    Zr45   O106      0.96487      .   S
    Zr3    O106      0.96487      .   S
    Zr44   O107      0.96541      .   S
    Zr2    O107      0.96541      .   S
    Zr48   O108      0.96472      .   S
    Zr6    O108      0.96472      .   S
    Zr49   O109      0.96442      .   S
    Zr7    O109      0.96442      .   S
    Zr61   O110      0.96298      .   S
    Zr3    O110      0.96298      .   S
    Zr60   O111      0.96356      .   S
    Zr2    O111      0.96356      .   S
    Zr57   O112      0.96265      .   S
    Zr6    O112      0.96265  1_455   S
    Zr56   O113      0.96303      .   S
    Zr7    O113      0.96303      .   S
    Zr10   O114      0.48492      .   S
    Zr42   O114      0.48492      .   S
    Zr11   O115      0.48487      .   S
    Zr43   O115      0.48487      .   S
    Zr3    O116      0.93101      .   S
    Zr63   O116      0.93101      .   S
    Zr3    O117      0.93093      .   S
    Zr43   O117      0.93093      .   S
    Zr3    O118      0.96350      .   S
    Zr41   O118      0.96350      .   S
    Zr3    O119      0.96576      .   S
    Zr65   O119      0.96576      .   S
    Zr63   O120      0.48492      .   S
    Zr15   O120      0.48492      .   S
    Zr6    O121      0.96278      .   S
    Zr36   O121      0.96278      .   S
    Zr6    O122      0.96465  1_455   S
    Zr69   O122      0.96465      .   S
    Zr7    O123      0.96303      .   S
    Zr37   O123      0.96303      .   S
    Zr7    O124      0.96442      .   S
    Zr68   O124      0.96442      .   S
    Zr62   O125      0.93094      .   S
    Zr2    O125      0.93094      .   S
    Zr62   O126      0.48489      .   S
    Zr14   O126      0.48489      .   S
    Zr2    O127      0.93101      .   S
    Zr42   O127      0.93101      .   S
    Zr2    O128      0.96339      .   S
    Zr40   O128      0.96339      .   S
    Zr2    O129      0.96522      .   S
    Zr64   O129      0.96522      .   S
    Zr37   O130      0.63739      .   S
    Zr17   O130      0.63739      .   S
    Zr36   O131      0.63746      .   S
    Zr16   O131      0.63746      .   S
    Zr41   O132      0.63777      .   S
    Zr17   O132      0.63777      .   S
    Zr40   O133      0.63740      .   S
    Zr16   O133      0.63740      .   S
    Zr68   O134      0.63714      .   S
    Zr30   O134      0.63714      .   S
    Zr69   O135      0.63704      .   S
    Zr31   O135      0.63704      .   S
    Zr65   O136      0.63717      .   S
    Zr31   O136      0.63717      .   S
    Zr64   O137      0.63706      .   S
    Zr30   O137      0.63706      .   S
    Zr18   O138      0.63713      .   S
    Zr34   O138      0.63713      .   S
    Zr18   O139      0.63705      .   S
    Zr38   O139      0.63705      .   S
    Zr19   O140      0.63715      .   S
    Zr35   O140      0.63715      .   S
    Zr19   O141      0.63715      .   S
    Zr39   O141      0.63715      .   S
    Zr28   O142      0.63745      .   S
    Zr70   O142      0.63745      .   S
    Zr28   O143      0.63741      .   S
    Zr66   O143      0.63741      .   S
    Zr29   O144      0.63747      .   S
    Zr71   O144      0.63747      .   S
    Zr29   O145      0.63745      .   S
    Zr67   O145      0.63745      .   S
    Zr38   O146      0.96431      .   S
    Zr4    O146      0.96431  1_565   S
    Zr66   O147      0.96322      .   S
    Zr4    O147      0.96322      .   S
    Zr32   O148      0.93106      .   S
    Zr0    O148      0.93106  1_545   S
    Zr42   O149      0.93126      .   S
    Zr6    O149      0.93126      .   S
    Zr43   O150      0.93107      .   S
    Zr7    O150      0.93107      .   S
    Zr52   O151      0.93116      .   S
    Zr4    O151      0.93116  1_565   S
    Zr62   O152      0.93107      .   S
    Zr7    O152      0.93107      .   S
    Zr63   O153      0.93102      .   S
    Zr6    O153      0.93102  1_455   S
    N154   O155      1.07397      .   S
    Zr28   O155      1.82080      .   S
    N154   O156      1.07353      .   S
    Zr30   O156      1.82111      .   S
    N157   O158      1.07399      .   S
    Zr29   O158      1.82080      .   S
    N157   O159      1.07341      .   S
    Zr31   O159      1.82124      .   S
    N160   O161      1.07369      .   S
    Zr25   O161      1.82087      .   S
    N160   O162      1.07334      .   S
    Zr27   O162      1.82109      .   S
    N163   O164      1.07388      .   S
    Zr20   O164      1.82075      .   S
    N163   O165      1.07350      .   S
    Zr22   O165      1.82131      .   S
    N166   O167      1.07385      .   S
    Zr16   O167      1.82065      .   S
    N166   O168      1.07336      .   S
    Zr18   O168      1.82112      .   S
    N169   O170      1.07331      .   S
    Zr26   O170      1.82104      .   S
    N169   O171      1.07393      .   S
    Zr24   O171      1.82071      .   S
    N172   O173      1.07343      .   S
    Zr23   O173      1.82120      .   S
    N172   O174      1.07395      .   S
    Zr21   O174      1.82084      .   S
    N175   O176      1.07334      .   S
    Zr19   O176      1.82101      .   S
    N175   O177      1.07383      .   S
    Zr17   O177      1.82068      .   S
