# CIF file generated by openbabel 2.4.90, see http://openbabel.sf.net
data_I
_chemical_name_common ''
_cell_length_a 8.919
_cell_length_b 10.1035
_cell_length_c 15.051
_cell_angle_alpha 90.021
_cell_angle_beta 90.193
_cell_angle_gamma 90.165
_space_group_name_H-M_alt 'P 1'
_space_group_name_Hall 'P 1'
loop_
    _symmetry_equiv_pos_as_xyz
    x,y,z
loop_
    _atom_site_label
    _atom_site_type_symbol
    _atom_site_fract_x
    _atom_site_fract_y
    _atom_site_fract_z
    _atom_site_occupancy
    Zr0     Zr   0.68230   0.05949   0.39126   1.000
    Zr1     Zr   0.31543   0.44010   0.89161   1.000
    Zr2     Zr   0.18045   0.94002   0.10971   1.000
    Zr3     Zr   0.81461   0.55997   0.61118   1.000
    N4      N    0.33929   0.74621   0.23448   1.000
    O5      O    0.49074   0.87009   0.28635   1.000
    N6      N    0.65582   0.75396   0.73564   1.000
    O7      O    0.50518   0.62980   0.78705   1.000
    N8      N    0.84200   0.25397   0.26688   1.000
    O9      O    0.99158   0.12985   0.21476   1.000
    N10     N    0.15434   0.24663   0.76681   1.000
    O11     O    0.00383   0.37053   0.71562   1.000
    C12     C    0.79717   0.34797   0.46425   1.000
    O13     O    0.75986   0.24889   0.44751   1.000
    O14     O    0.81145   0.42677   0.50600   1.000
    O15     O    0.80411   0.32897   0.39606   1.000
    C16     C    0.07946   0.75150   0.68565   1.000
    O17     O    0.99989   0.68511   0.65478   1.000
    O18     O    0.94867   0.75634   0.70994   1.000
    C19     C    0.70209   0.84882   0.53876   1.000
    O20     O    0.68726   0.92726   0.49691   1.000
    O21     O    0.73876   0.74968   0.55531   1.000
    O22     O    0.69482   0.82953   0.60684   1.000
    C23     C    0.41822   0.25169   0.31775   1.000
    O24     O    0.54905   0.25655   0.29324   1.000
    O25     O    0.49745   0.18508   0.34834   1.000
    C26     C    0.91586   0.74813   0.18302   1.000
    O27     O    0.99528   0.81451   0.15240   1.000
    O28     O    0.04662   0.74353   0.20776   1.000
    C29     C    0.29656   0.65183   0.03804   1.000
    O30     O    0.25885   0.75076   0.05432   1.000
    O31     O    0.31144   0.57317   0.99657   1.000
    O32     O    0.30244   0.67094   0.10593   1.000
    C33     C    0.20081   0.15075   0.96304   1.000
    O34     O    0.18561   0.07224   0.00450   1.000
    O35     O    0.19344   0.17044   0.89514   1.000
    O36     O    0.23827   0.24998   0.94691   1.000
    C37     C    0.57821   0.24854   0.81751   1.000
    O38     O    0.44729   0.24397   0.79295   1.000
    O39     O    0.49936   0.31486   0.84832   1.000
    O40     O    0.79713   0.17916   0.31004   1.000
    O41     O    0.70024   0.67939   0.69231   1.000
    O42     O    0.19963   0.32107   0.81020   1.000
    O43     O    0.29484   0.82083   0.19118   1.000
loop_
    _geom_bond_atom_site_label_1
    _geom_bond_atom_site_label_2
    _geom_bond_distance
    _geom_bond_site_symmetry_2
    _ccdc_geom_bond_type
    N4     O5        1.99579      .   S
    Zr0    O5        3.00576  1_545   S
    N6     O7        1.99386      .   S
    Zr1    O7        3.00265      .   S
    N8     O9        1.99595      .   S
    Zr2    O9        3.00841  1_465   S
    N10    O11       1.99154      .   S
    Zr3    O11       2.99759  1_655   S
    C12    O13       1.08334      .   S
    Zr0    O13       2.20105      .   S
    C12    O14       1.02152      .   S
    Zr3    O14       2.07742      .   S
    C12    O15       1.04626      .   S
    N8     O15       2.11502      .   S
    C16    O17       1.07904  1_455   S
    Zr3    O17       2.17719      .   S
    C16    O18       1.22469  1_455   S
    N6     O18       2.64178      .   S
    C19    O20       1.02116      .   S
    Zr0    O20       2.07762  1_545   S
    C19    O21       1.08341      .   S
    Zr3    O21       2.20077      .   S
    C19    O22       1.04532      .   S
    N6     O22       2.11332      .   S
    C23    O24       1.22586      .   S
    N8     O24       2.64428      .   S
    C23    O25       1.07944      .   S
    Zr0    O25       2.17965      .   S
    C26    O27       1.07881      .   S
    Zr2    O27       2.17807  1_455   S
    C26    O28       1.22411  1_655   S
    N4     O28       2.63985      .   S
    C29    O30       1.08373      .   S
    Zr2    O30       2.20248      .   S
    C29    O31       1.01965  1_554   S
    Zr1    O31       2.07444      .   S
    C29    O32       1.04101      .   S
    N4     O32       2.10302      .   S
    C33    O34       1.01851  1_556   S
    Zr2    O34       2.07268  1_565   S
    C33    O35       1.04317      .   S
    N10    O35       2.10781      .   S
    C33    O36       1.08375      .   S
    Zr1    O36       2.20306      .   S
    C37    O38       1.22436      .   S
    N10    O38       2.64114      .   S
    C37    O39       1.07858      .   S
    Zr1    O39       2.17611      .   S
    Zr0    O40       2.00191      .   S
    N8     O40       1.07425      .   S
    Zr3    O41       2.00036      .   S
    N6     O41       1.07383      .   S
    N10    O42       1.07303      .   S
    Zr1    O42       1.99943      .   S
    Zr2    O43       1.99854      .   S
    N4     O43       1.07260      .   S
