# CIF file generated by openbabel 2.4.90, see http://openbabel.sf.net
data_I
_chemical_name_common ''
_cell_length_a 8.919
_cell_length_b 10.1035
_cell_length_c 15.051
_cell_angle_alpha 90.021
_cell_angle_beta 90.193
_cell_angle_gamma 90.165
_space_group_name_H-M_alt 'P 1'
_space_group_name_Hall 'P 1'
loop_
    _symmetry_equiv_pos_as_xyz
    x,y,z
loop_
    _atom_site_label
    _atom_site_type_symbol
    _atom_site_fract_x
    _atom_site_fract_y
    _atom_site_fract_z
    _atom_site_occupancy
    Zr0     Zr   0.68230   0.05949   0.39126   1.000
    Zr1     Zr   0.31543   0.44010   0.89161   1.000
    Zr2     Zr   0.18045   0.94002   0.10971   1.000
    Zr3     Zr   0.81461   0.55997   0.61118   1.000
    N4      N    0.33929   0.74621   0.23448   1.000
    O5      O    0.31830   0.84867   0.18372   1.000
    O6      O    0.27138   0.79298   0.19864   1.000
    O7      O    0.49074   0.87009   0.28635   1.000
    N8      N    0.65582   0.75396   0.73564   1.000
    O9      O    0.72380   0.70715   0.69993   1.000
    O10     O    0.67669   0.65162   0.68468   1.000
    O11     O    0.50518   0.62980   0.78705   1.000
    N12     N    0.84200   0.25397   0.26688   1.000
    O13     O    0.99158   0.12985   0.21476   1.000
    O14     O    0.77381   0.20705   0.30265   1.000
    O15     O    0.82045   0.15127   0.31744   1.000
    N16     N    0.15434   0.24663   0.76681   1.000
    O17     O    0.22292   0.29333   0.80256   1.000
    O18     O    0.00383   0.37053   0.71562   1.000
    O19     O    0.17634   0.34882   0.81784   1.000
    C20     C    0.79717   0.34797   0.46425   1.000
    O21     O    0.75986   0.24889   0.44751   1.000
    O22     O    0.81145   0.42677   0.50600   1.000
    O23     O    0.80411   0.32897   0.39606   1.000
    C24     C    0.07946   0.75150   0.68565   1.000
    O25     O    0.99989   0.68511   0.65478   1.000
    O26     O    0.94867   0.75634   0.70994   1.000
    C27     C    0.70209   0.84882   0.53876   1.000
    O28     O    0.68726   0.92726   0.49691   1.000
    O29     O    0.73876   0.74968   0.55531   1.000
    O30     O    0.69482   0.82953   0.60684   1.000
    C31     C    0.41822   0.25169   0.31775   1.000
    O32     O    0.54905   0.25655   0.29324   1.000
    O33     O    0.49745   0.18508   0.34834   1.000
    C34     C    0.91586   0.74813   0.18302   1.000
    O35     O    0.99528   0.81451   0.15240   1.000
    O36     O    0.04662   0.74353   0.20776   1.000
    C37     C    0.29656   0.65183   0.03804   1.000
    O38     O    0.25885   0.75076   0.05432   1.000
    O39     O    0.31144   0.57317   0.99657   1.000
    O40     O    0.30244   0.67094   0.10593   1.000
    C41     C    0.20081   0.15075   0.96304   1.000
    O42     O    0.18561   0.07224   0.00450   1.000
    O43     O    0.19344   0.17044   0.89514   1.000
    O44     O    0.23827   0.24998   0.94691   1.000
    C45     C    0.57821   0.24854   0.81751   1.000
    O46     O    0.44729   0.24397   0.79295   1.000
    O47     O    0.49936   0.31486   0.84832   1.000
loop_
    _geom_bond_atom_site_label_1
    _geom_bond_atom_site_label_2
    _geom_bond_distance
    _geom_bond_site_symmetry_2
    _ccdc_geom_bond_type
    N4     O5        1.30033      .   S
    Zr2    O5        1.89792      .   S
    N4     O6        0.93850      .   S
    Zr2    O6        2.15799      .   S
    N4     O7        1.99579      .   S
    Zr0    O7        3.00576  1_545   S
    N8     O9        0.94004      .   S
    Zr3    O9        2.15976      .   S
    N8     O10       1.30135      .   S
    Zr3    O10       1.89980      .   S
    N8     O11       1.99386      .   S
    Zr1    O11       3.00265      .   S
    N12    O13       1.99595      .   S
    Zr2    O13       3.00841  1_465   S
    N12    O14       0.94085      .   S
    Zr0    O14       2.16095      .   S
    N12    O15       1.30129      .   S
    Zr0    O15       1.90160      .   S
    N16    O17       0.93919      .   S
    Zr1    O17       2.15882      .   S
    N16    O18       1.99154      .   S
    Zr3    O18       2.99759  1_655   S
    N16    O19       1.30060      .   S
    Zr1    O19       1.89888      .   S
    C20    O21       1.08334      .   S
    Zr0    O21       2.20105      .   S
    C20    O22       1.02152      .   S
    Zr3    O22       2.07742      .   S
    C20    O23       1.04626      .   S
    N12    O23       2.11502      .   S
    C24    O25       1.07904  1_455   S
    Zr3    O25       2.17719      .   S
    C24    O26       1.22469  1_455   S
    N8     O26       2.64178      .   S
    C27    O28       1.02116      .   S
    Zr0    O28       2.07762  1_545   S
    C27    O29       1.08341      .   S
    Zr3    O29       2.20077      .   S
    C27    O30       1.04532      .   S
    N8     O30       2.11332      .   S
    C31    O32       1.22586      .   S
    N12    O32       2.64428      .   S
    C31    O33       1.07944      .   S
    Zr0    O33       2.17965      .   S
    C34    O35       1.07881      .   S
    Zr2    O35       2.17807  1_455   S
    C34    O36       1.22411  1_655   S
    N4     O36       2.63985      .   S
    C37    O38       1.08373      .   S
    Zr2    O38       2.20248      .   S
    C37    O39       1.01965  1_554   S
    Zr1    O39       2.07444      .   S
    C37    O40       1.04101      .   S
    N4     O40       2.10302      .   S
    C41    O42       1.01851  1_556   S
    Zr2    O42       2.07268  1_565   S
    C41    O43       1.04317      .   S
    N16    O43       2.10781      .   S
    C41    O44       1.08375      .   S
    Zr1    O44       2.20306      .   S
    C45    O46       1.22436      .   S
    N16    O46       2.64114      .   S
    C45    O47       1.07858      .   S
    Zr1    O47       2.17611      .   S
