# CIF file generated by openbabel 2.4.90, see http://openbabel.sf.net
data_I
_chemical_name_common ''
_cell_length_a 8.919
_cell_length_b 10.1035
_cell_length_c 15.051
_cell_angle_alpha 90.021
_cell_angle_beta 90.193
_cell_angle_gamma 90.165
_space_group_name_H-M_alt 'P 1'
_space_group_name_Hall 'P 1'
loop_
    _symmetry_equiv_pos_as_xyz
    x,y,z
loop_
    _atom_site_label
    _atom_site_type_symbol
    _atom_site_fract_x
    _atom_site_fract_y
    _atom_site_fract_z
    _atom_site_occupancy
    Zr0     Zr   0.68230   0.05949   0.39126   1.000
    Zr1     Zr   0.31543   0.44010   0.89161   1.000
    Zr2     Zr   0.18045   0.94002   0.10971   1.000
    Zr3     Zr   0.81461   0.55997   0.61118   1.000
    Zr4     Zr   0.79183   0.35259   0.43817   1.000
    Zr5     Zr   0.45166   0.25860   0.30212   1.000
    Zr6     Zr   0.20602   0.14650   0.93697   1.000
    Zr7     Zr   0.54476   0.24189   0.80168   1.000
    Zr8     Zr   0.29065   0.64725   0.06405   1.000
    Zr9     Zr   0.94927   0.74146   0.19878   1.000
    Zr10    Zr   0.70741   0.85338   0.56485   1.000
    Zr11    Zr   0.04612   0.75834   0.70133   1.000
    Zr12    Zr   0.76280   0.24015   0.47026   1.000
    Zr13    Zr   0.83686   0.45118   0.48433   1.000
    Zr14    Zr   0.33194   0.31905   0.28452   1.000
    Zr15    Zr   0.47106   0.17743   0.36661   1.000
    Zr16    Zr   0.23604   0.25831   0.96994   1.000
    Zr17    Zr   0.16036   0.04744   0.98222   1.000
    Zr18    Zr   0.66428   0.18148   0.78419   1.000
    Zr19    Zr   0.52559   0.32227   0.86664   1.000
    Zr20    Zr   0.26184   0.75936   0.03148   1.000
    Zr21    Zr   0.33719   0.54889   0.01859   1.000
    Zr22    Zr   0.82936   0.68112   0.21645   1.000
    Zr23    Zr   0.96894   0.82179   0.13383   1.000
    Zr24    Zr   0.73626   0.74113   0.53255   1.000
    Zr25    Zr   0.66259   0.95194   0.51887   1.000
    Zr26    Zr   0.16623   0.81869   0.71900   1.000
    Zr27    Zr   0.02603   0.67747   0.63663   1.000
    O28     O    0.31392   0.59807   0.04132   1.000
    O29     O    0.32631   0.49450   0.95510   1.000
    O30     O    0.27625   0.70330   0.04776   1.000
    O31     O    0.22115   0.84969   0.07059   1.000
    O32     O    0.07470   0.88090   0.12177   1.000
    O33     O    0.17041   0.99373   0.04597   1.000
    O34     O    0.95910   0.78163   0.16631   1.000
    O35     O    0.88931   0.71129   0.20762   1.000
    O36     O    0.39180   0.28882   0.29332   1.000
    O37     O    0.46136   0.21802   0.33437   1.000
    O38     O    0.57668   0.11846   0.37894   1.000
    O39     O    0.72255   0.14982   0.43076   1.000
    O40     O    0.67244   0.00571   0.45507   1.000
    O41     O    0.77732   0.29637   0.45422   1.000
    O42     O    0.81435   0.40188   0.46125   1.000
    O43     O    0.82574   0.50558   0.54776   1.000
    O44     O    0.68500   0.90266   0.54186   1.000
    O45     O    0.72183   0.79725   0.54870   1.000
    O46     O    0.77543   0.65055   0.57187   1.000
    O47     O    0.92032   0.61872   0.62390   1.000
    O48     O    0.03608   0.71790   0.66898   1.000
    O49     O    0.10618   0.78851   0.71017   1.000
    O50     O    0.60452   0.21168   0.79294   1.000
    O51     O    0.53518   0.28208   0.83416   1.000
    O52     O    0.42051   0.38118   0.87913   1.000
    O53     O    0.27574   0.34921   0.93077   1.000
    O54     O    0.22103   0.20241   0.95345   1.000
    O55     O    0.18319   0.09697   0.95959   1.000
    N56     N    0.33929   0.74621   0.23448   1.000
    O57     O    0.31830   0.84867   0.18372   1.000
    O58     O    0.27138   0.79298   0.19864   1.000
    O59     O    0.49074   0.87009   0.28635   1.000
    O60     O    0.30833   0.69004   0.17383   1.000
    O61     O    0.17738   0.73894   0.23251   1.000
    N62     N    0.65582   0.75396   0.73564   1.000
    O63     O    0.81788   0.76118   0.73422   1.000
    O64     O    0.72380   0.70715   0.69993   1.000
    O65     O    0.67669   0.65162   0.68468   1.000
    O66     O    0.50518   0.62980   0.78705   1.000
    O67     O    0.68756   0.81025   0.67492   1.000
    N68     N    0.84200   0.25397   0.26688   1.000
    O69     O    0.99158   0.12985   0.21476   1.000
    O70     O    0.67989   0.26140   0.26874   1.000
    O71     O    0.77381   0.20705   0.30265   1.000
    O72     O    0.82045   0.15127   0.31744   1.000
    O73     O    0.81106   0.30997   0.32786   1.000
    N74     N    0.15434   0.24663   0.76681   1.000
    O75     O    0.22292   0.29333   0.80256   1.000
    O76     O    0.31637   0.23940   0.76839   1.000
    O77     O    0.00383   0.37053   0.71562   1.000
    O78     O    0.18607   0.19012   0.82723   1.000
    O79     O    0.17634   0.34882   0.81784   1.000
loop_
    _geom_bond_atom_site_label_1
    _geom_bond_atom_site_label_2
    _geom_bond_distance
    _geom_bond_site_symmetry_2
    _ccdc_geom_bond_type
    Zr21   O28       0.63867      .   S
    Zr8    O28       0.63867      .   S
    Zr21   O29       1.10602  1_554   S
    Zr1    O29       1.10602      .   S
    Zr20   O30       0.63058      .   S
    Zr8    O30       0.63058      .   S
    Zr20   O31       1.14641      .   S
    Zr2    O31       1.14641      .   S
    Zr2    O32       1.13019      .   S
    Zr23   O32       1.13019  1_655   S
    Zr2    O33       1.10597      .   S
    Zr17   O33       1.10597  1_546   S
    Zr23   O34       0.64150      .   S
    Zr9    O34       0.64150      .   S
    Zr9    O35       0.62936      .   S
    Zr22   O35       0.62936      .   S
    Zr14   O36       0.62955      .   S
    Zr5    O36       0.62955      .   S
    Zr5    O37       0.64128      .   S
    Zr15   O37       0.64128      .   S
    Zr15   O38       1.13088      .   S
    Zr0    O38       1.13088      .   S
    Zr0    O39       1.14524      .   S
    Zr12   O39       1.14524      .   S
    Zr0    O40       1.10714      .   S
    Zr25   O40       1.10714  1_565   S
    Zr4    O41       0.63060      .   S
    Zr12   O41       0.63060      .   S
    Zr4    O42       0.63868      .   S
    Zr13   O42       0.63868      .   S
    Zr13   O43       1.10622      .   S
    Zr3    O43       1.10622      .   S
    Zr25   O44       0.63858      .   S
    Zr10   O44       0.63858      .   S
    Zr24   O45       0.63066      .   S
    Zr10   O45       0.63066      .   S
    Zr24   O46       1.14478      .   S
    Zr3    O46       1.14478      .   S
    Zr3    O47       1.12848      .   S
    Zr27   O47       1.12848  1_455   S
    Zr27   O48       0.64136      .   S
    Zr11   O48       0.64136      .   S
    Zr11   O49       0.62934      .   S
    Zr26   O49       0.62934      .   S
    Zr18   O50       0.62923      .   S
    Zr7    O50       0.62923      .   S
    Zr7    O51       0.64149      .   S
    Zr19   O51       0.64149      .   S
    Zr19   O52       1.12798      .   S
    Zr1    O52       1.12798      .   S
    Zr1    O53       1.14719      .   S
    Zr16   O53       1.14719      .   S
    Zr6    O54       0.63069      .   S
    Zr16   O54       0.63069      .   S
    Zr6    O55       0.63862      .   S
    Zr17   O55       0.63862      .   S
    N56    O57       1.30033      .   S
    Zr2    O57       1.89792      .   S
    N56    O58       0.93850      .   S
    Zr2    O58       2.15799      .   S
    N56    O59       1.99579      .   S
    Zr0    O59       3.00576  1_545   S
    N56    O60       1.10842      .   S
    Zr8    O60       1.71446      .   S
    N56    O61       1.44592      .   S
    Zr9    O61       2.09551  1_655   S
    N62    O63       1.44732      .   S
    Zr11   O63       2.09686  1_455   S
    N62    O64       0.94004      .   S
    Zr3    O64       2.15976      .   S
    N62    O65       1.30135      .   S
    Zr3    O65       1.89980      .   S
    N62    O66       1.99386      .   S
    Zr1    O66       3.00265      .   S
    N62    O67       1.11353      .   S
    Zr10   O67       1.72280      .   S
    N68    O69       1.99595      .   S
    Zr2    O69       3.00841  1_465   S
    N68    O70       1.44841      .   S
    Zr5    O70       2.09844      .   S
    N68    O71       0.94085      .   S
    Zr0    O71       2.16095      .   S
    N68    O72       1.30129      .   S
    Zr0    O72       1.90160      .   S
    N68    O73       1.11391      .   S
    Zr4    O73       1.72427      .   S
    N74    O75       0.93919      .   S
    Zr1    O75       2.15882      .   S
    N74    O76       1.44725      .   S
    Zr7    O76       2.09625      .   S
    N74    O77       1.99154      .   S
    Zr3    O77       2.99759  1_655   S
    N74    O78       1.11028      .   S
    Zr6    O78       1.71840      .   S
    N74    O79       1.30060      .   S
    Zr1    O79       1.89888      .   S
