# CIF file generated by openbabel 2.4.90, see http://openbabel.sf.net
data_I
_chemical_name_common ''
_cell_length_a 13.019
_cell_length_b 12.951
_cell_length_c 21.117
_cell_angle_alpha 85.765
_cell_angle_beta 85.797
_cell_angle_gamma 69.843
_space_group_name_H-M_alt 'P 1'
_space_group_name_Hall 'P 1'
loop_
    _symmetry_equiv_pos_as_xyz
    x,y,z
loop_
    _atom_site_label
    _atom_site_type_symbol
    _atom_site_fract_x
    _atom_site_fract_y
    _atom_site_fract_z
    _atom_site_occupancy
    Lv0     Lv   0.18136   0.16205   0.42470   1.000
    Lv1     Lv   0.81381   0.30281   0.17240   1.000
    Lv2     Lv   0.16142   0.18209   0.92472   1.000
    Lv3     Lv   0.83861   0.81790   0.07523   1.000
    Lv4     Lv   0.67505   0.18523   0.83096   1.000
    Lv5     Lv   0.32498   0.81475   0.16900   1.000
    Lv6     Lv   0.18562   0.67446   0.33098   1.000
    Lv7     Lv   0.18621   0.69717   0.82754   1.000
    Lv8     Lv   0.69754   0.18580   0.32751   1.000
    Lv9     Lv   0.81867   0.83793   0.57528   1.000
    Lv10    Lv   0.81442   0.32552   0.66898   1.000
    Lv11    Lv   0.30250   0.81417   0.67246   1.000
