# CIF file generated by openbabel 2.4.90, see http://openbabel.sf.net
data_I
_chemical_name_common ''
_cell_length_a 13.019
_cell_length_b 12.951
_cell_length_c 21.117
_cell_angle_alpha 85.765
_cell_angle_beta 85.797
_cell_angle_gamma 69.843
_space_group_name_H-M_alt 'P 1'
_space_group_name_Hall 'P 1'
loop_
    _symmetry_equiv_pos_as_xyz
    x,y,z
loop_
    _atom_site_label
    _atom_site_type_symbol
    _atom_site_fract_x
    _atom_site_fract_y
    _atom_site_fract_z
    _atom_site_occupancy
    N0      N    0.18136   0.16205   0.42470   1.000
    N1      N    0.81381   0.30281   0.17240   1.000
    N2      N    0.16142   0.18209   0.92472   1.000
    N3      N    0.83861   0.81790   0.07523   1.000
    N4      N    0.67505   0.18523   0.83096   1.000
    N5      N    0.32498   0.81475   0.16900   1.000
    N6      N    0.18562   0.67446   0.33098   1.000
    N7      N    0.18621   0.69717   0.82754   1.000
    N8      N    0.69754   0.18580   0.32751   1.000
    N9      N    0.81867   0.83793   0.57528   1.000
    N10     N    0.81442   0.32552   0.66898   1.000
    N11     N    0.30250   0.81417   0.67246   1.000
    Zr12    Zr   0.00226   0.99767   0.24995   1.000
    O13     O    0.89131   0.04972   0.28671   1.000
    O14     O    0.05224   0.87845   0.28818   1.000
    O15     O    0.92163   0.92860   0.38866   1.000
    O16     O    0.93449   0.92166   0.18263   1.000
    O17     O    0.07773   0.06598   0.31730   1.000
    O18     O    0.07111   0.07864   0.11128   1.000
    O19     O    0.12118   0.94792   0.21169   1.000
    O20     O    0.95003   0.10888   0.21309   1.000
    Zr21    Zr   0.50002   0.49999   0.49999   1.000
    O22     O    0.40290   0.63411   0.56320   1.000
    O23     O    0.63407   0.64345   0.54142   1.000
    O24     O    0.59713   0.36585   0.43678   1.000
    O25     O    0.63817   0.41491   0.55999   1.000
    O26     O    0.36187   0.58506   0.43998   1.000
    O27     O    0.55527   0.38638   0.42761   1.000
    O28     O    0.38792   0.54586   0.42902   1.000
    O29     O    0.36597   0.35653   0.45856   1.000
    O30     O    0.61212   0.45412   0.57094   1.000
    O31     O    0.44477   0.61359   0.57237   1.000
    Zr32    Zr   0.50002   0.49999   0.99999   1.000
    O33     O    0.58519   0.36158   0.94004   1.000
    O34     O    0.41484   0.63840   0.05993   1.000
    O35     O    0.64368   0.63379   0.04139   1.000
    O36     O    0.63393   0.40285   0.06325   1.000
    O37     O    0.45391   0.61235   0.07091   1.000
    O38     O    0.61335   0.44491   0.07234   1.000
    O39     O    0.35635   0.36619   0.95857   1.000
    O40     O    0.54612   0.38763   0.92906   1.000
    O41     O    0.38667   0.55506   0.92759   1.000
    O42     O    0.36610   0.59713   0.93671   1.000
    Zr43    Zr   0.99778   0.00231   0.74995   1.000
    O44     O    0.06554   0.07832   0.81730   1.000
    O45     O    0.07841   0.07138   0.61128   1.000
    O46     O    0.10873   0.95025   0.71311   1.000
    O47     O    0.94780   0.12153   0.71164   1.000
    O48     O    0.87885   0.05206   0.78823   1.000
    O49     O    0.05000   0.89110   0.78684   1.000
    O50     O    0.92893   0.92134   0.88864   1.000
    O51     O    0.92230   0.93400   0.68263   1.000
loop_
    _geom_bond_atom_site_label_1
    _geom_bond_atom_site_label_2
    _geom_bond_distance
    _geom_bond_site_symmetry_2
    _ccdc_geom_bond_type
    Zr12   O13       1.54447  1_465   S
    N8     O13       2.65586      .   S
    Zr12   O14       1.63088      .   S
    N6     O14       2.74361      .   S
    Zr12   O15       3.20807  1_455   S
    N9     O15       4.28156      .   S
    Zr12   O16       2.18121  1_455   S
    N3     O16       3.24470      .   S
    Zr12   O17       2.18195  1_565   S
    N0     O17       3.24551      .   S
    Zr12   O18       3.20735  1_565   S
    N2     O18       4.28079  1_556   S
    Zr12   O19       1.63429      .   S
    N5     O19       2.74817      .   S
    Zr12   O20       1.54263  1_465   S
    N1     O20       2.65069      .   S
    Zr21   O22       2.23140      .   S
    N11    O22       3.27439      .   S
    Zr21   O23       3.15626      .   S
    N9     O23       4.16187      .   S
    Zr21   O24       2.23144      .   S
    N8     O24       3.27449      .   S
    Zr21   O25       2.19471      .   S
    N10    O25       3.23292      .   S
    Zr21   O26       2.19474      .   S
    N6     O26       3.23308      .   S
    Zr21   O27       2.11185      .   S
    N8     O27       3.40115      .   S
    Zr21   O28       2.07851      .   S
    N6     O28       3.35610      .   S
    Zr21   O29       3.15624      .   S
    N0     O29       4.16186      .   S
    Zr21   O30       2.07838      .   S
    N10    O30       3.35603      .   S
    Zr21   O31       2.11179      .   S
    N11    O31       3.40108      .   S
    Zr32   O33       2.19204      .   S
    N4     O33       3.22974      .   S
    Zr32   O34       2.19203  1_556   S
    N5     O34       3.22961      .   S
    Zr32   O35       3.15647  1_556   S
    N3     O35       4.16219      .   S
    Zr32   O36       2.23352  1_556   S
    N1     O36       3.27639      .   S
    Zr32   O37       2.07590  1_556   S
    N5     O37       3.35249      .   S
    Zr32   O38       2.11300  1_556   S
    N1     O38       3.40387      .   S
    Zr32   O39       3.15647      .   S
    N2     O39       4.16223      .   S
    Zr32   O40       2.07591      .   S
    N4     O40       3.35260      .   S
    Zr32   O41       2.11372      .   S
    N7     O41       3.40372      .   S
    Zr32   O42       2.23362      .   S
    N7     O42       3.27680      .   S
    Zr43   O44       2.18161  1_655   S
    N2     O44       3.24518      .   S
    Zr43   O45       3.20735  1_655   S
    N0     O45       4.28088      .   S
    Zr43   O46       1.54522  1_645   S
    N11    O46       2.65494      .   S
    Zr43   O47       1.63160      .   S
    N10    O47       2.74272      .   S
    Zr43   O48       1.63463      .   S
    N4     O48       2.74842      .   S
    Zr43   O49       1.54293  1_645   S
    N7     O49       2.65074      .   S
    Zr43   O50       3.20780  1_545   S
    N3     O50       4.28138  1_554   S
    Zr43   O51       2.18137  1_545   S
    N9     O51       3.24490      .   S
