# CIF file generated by openbabel 2.4.90, see http://openbabel.sf.net
data_I
_chemical_name_common ''
_cell_length_a 12.599
_cell_length_b 17.292
_cell_length_c 19.294
_cell_angle_alpha 65.181
_cell_angle_beta 84.55
_cell_angle_gamma 83.659
_space_group_name_H-M_alt 'P 1'
_space_group_name_Hall 'P 1'
loop_
    _symmetry_equiv_pos_as_xyz
    x,y,z
loop_
    _atom_site_label
    _atom_site_type_symbol
    _atom_site_fract_x
    _atom_site_fract_y
    _atom_site_fract_z
    _atom_site_occupancy
    Zr0     Zr   0.35994   0.23529   0.35010   1.000
    Zr1     Zr   0.35994   0.23530   0.85014   1.000
    Zr2     Zr   0.35994   0.73531   0.35010   1.000
    Zr3     Zr   0.35994   0.73531   0.85014   1.000
    Zr4     Zr   0.85994   0.23529   0.35010   1.000
    Zr5     Zr   0.85993   0.23530   0.85014   1.000
    Zr6     Zr   0.85993   0.73531   0.35015   1.000
    Zr7     Zr   0.85993   0.73531   0.85014   1.000
    Zr8     Zr   0.39296   0.43134   0.46672   1.000
    Zr9     Zr   0.39296   0.43134   0.96671   1.000
    Zr10    Zr   0.39296   0.93135   0.46672   1.000
    Zr11    Zr   0.39296   0.93136   0.96671   1.000
    Zr12    Zr   0.89296   0.43134   0.46672   1.000
    Zr13    Zr   0.89296   0.43134   0.96671   1.000
    Zr14    Zr   0.89296   0.93135   0.46672   1.000
    Zr15    Zr   0.89295   0.93136   0.96671   1.000
    Zr16    Zr   0.14005   0.26473   0.14984   1.000
    Zr17    Zr   0.14005   0.26473   0.64983   1.000
    Zr18    Zr   0.14005   0.76474   0.14984   1.000
    Zr19    Zr   0.14004   0.76475   0.64983   1.000
    Zr20    Zr   0.64005   0.26473   0.14984   1.000
    Zr21    Zr   0.64004   0.26473   0.64983   1.000
    Zr22    Zr   0.64004   0.76474   0.14984   1.000
    Zr23    Zr   0.64004   0.76475   0.64983   1.000
    Zr24    Zr   0.10703   0.06868   0.03327   1.000
    Zr25    Zr   0.10703   0.06869   0.53326   1.000
    Zr26    Zr   0.10703   0.56869   0.03327   1.000
    Zr27    Zr   0.10702   0.56870   0.53326   1.000
    Zr28    Zr   0.60703   0.06868   0.03327   1.000
    Zr29    Zr   0.60702   0.06869   0.53326   1.000
    Zr30    Zr   0.60702   0.56869   0.03327   1.000
    Zr31    Zr   0.60702   0.56870   0.53326   1.000
    C32     C    0.86733   0.39224   0.65827   1.000
    C33     C    0.87302   0.18202   0.07290   1.000
    C34     C    0.13265   0.60780   0.34169   1.000
    C35     C    0.62697   0.31800   0.42707   1.000
    C36     C    0.36734   0.39224   0.65827   1.000
    C37     C    0.36734   0.39223   0.15829   1.000
    C38     C    0.37302   0.68204   0.07280   1.000
    C39     C    0.63264   0.60780   0.34169   1.000
    C40     C    0.37301   0.68204   0.57289   1.000
    C41     C    0.86734   0.89225   0.15829   1.000
    C42     C    0.86734   0.39223   0.15829   1.000
    C43     C    0.87301   0.68204   0.57288   1.000
    C44     C    0.36734   0.89225   0.15829   1.000
    C45     C    0.13265   0.10779   0.84169   1.000
    C46     C    0.12697   0.31800   0.42705   1.000
    C47     C    0.36734   0.89225   0.65827   1.000
    C48     C    0.62697   0.81801   0.42707   1.000
    C49     C    0.13265   0.10779   0.34169   1.000
    C50     C    0.86733   0.89225   0.65827   1.000
    C51     C    0.63265   0.10779   0.34169   1.000
    C52     C    0.13264   0.60781   0.84169   1.000
    C53     C    0.63264   0.10779   0.84169   1.000
    C54     C    0.37301   0.18203   0.57288   1.000
    C55     C    0.87301   0.68204   0.07290   1.000
    C56     C    0.87301   0.18203   0.57289   1.000
    C57     C    0.37302   0.18202   0.07286   1.000
    C58     C    0.12697   0.81802   0.92704   1.000
    C59     C    0.12697   0.31800   0.92702   1.000
    C60     C    0.62696   0.81802   0.92707   1.000
    C61     C    0.62696   0.31800   0.92707   1.000
    C62     C    0.12697   0.81801   0.42707   1.000
    C63     C    0.63264   0.60781   0.84169   1.000
    C64     C    0.96092   0.38852   0.65854   1.000
    O65     O    0.92963   0.39001   0.65857   1.000
    O66     O    0.00261   0.44395   0.61148   1.000
    O67     O    0.94910   0.40961   0.59484   1.000
    O68     O    0.93841   0.33927   0.72208   1.000
    C69     C    0.42674   0.71879   0.09254   1.000
    O70     O    0.40883   0.70638   0.08613   1.000
    O71     O    0.49995   0.72024   0.10781   1.000
    O72     O    0.49169   0.67123   0.07866   1.000
    O73     O    0.40290   0.78519   0.06163   1.000
    O74     O    0.33968   0.74353   0.10741   1.000
    C75     C    0.81925   0.64704   0.05160   1.000
    O76     O    0.75470   0.67799   0.08435   1.000
    O77     O    0.74644   0.62898   0.05521   1.000
    O78     O    0.84468   0.66480   0.99116   1.000
    O79     O    0.90646   0.62314   0.03694   1.000
    O80     O    0.83719   0.65857   0.05882   1.000
    C81     C    0.22541   0.10720   0.84335   1.000
    O82     O    0.19453   0.10713   0.84269   1.000
    O83     O    0.20890   0.15751   0.77940   1.000
    O84     O    0.19868   0.08687   0.90666   1.000
    O85     O    0.27016   0.05254   0.89002   1.000
    C86     C    0.57324   0.78126   0.40743   1.000
    O87     O    0.66031   0.75652   0.39257   1.000
    O88     O    0.59708   0.71487   0.43835   1.000
    O89     O    0.59116   0.79367   0.41383   1.000
    O90     O    0.50004   0.77981   0.39216   1.000
    O91     O    0.50829   0.82882   0.42132   1.000
    C92     C    0.77457   0.39283   0.65660   1.000
    O93     O    0.80545   0.39290   0.65727   1.000
    O94     O    0.80130   0.41316   0.59331   1.000
    O95     O    0.72981   0.44750   0.60994   1.000
    O96     O    0.79108   0.34252   0.72056   1.000
    C97     C    0.27457   0.39283   0.65660   1.000
    O98     O    0.22982   0.44750   0.60994   1.000
    O99     O    0.30130   0.41316   0.59331   1.000
    O100    O    0.30545   0.39290   0.65727   1.000
    O101    O    0.29109   0.34252   0.72056   1.000
    C102    C    0.72541   0.60722   0.84335   1.000
    O103    O    0.69452   0.60714   0.84269   1.000
    O104    O    0.70889   0.65752   0.77940   1.000
    O105    O    0.77016   0.55254   0.89002   1.000
    O106    O    0.69868   0.58688   0.90666   1.000
    C107    C    0.92674   0.71879   0.59254   1.000
    O108    O    0.90882   0.70638   0.58614   1.000
    O109    O    0.90290   0.78518   0.56163   1.000
    O110    O    0.83967   0.74353   0.60741   1.000
    O111    O    0.99994   0.72024   0.60780   1.000
    O112    O    0.99169   0.67123   0.57866   1.000
    C113    C    0.22542   0.10720   0.34336   1.000
    O114    O    0.19453   0.10712   0.34270   1.000
    O115    O    0.19868   0.08686   0.40666   1.000
    O116    O    0.27017   0.05253   0.39003   1.000
    O117    O    0.20890   0.15751   0.27941   1.000
    C118    C    0.96093   0.88853   0.15855   1.000
    O119    O    0.92963   0.89002   0.15858   1.000
    O120    O    0.00261   0.94395   0.11149   1.000
    O121    O    0.94909   0.90962   0.09485   1.000
    O122    O    0.93841   0.83928   0.22209   1.000
    C123    C    0.46093   0.38852   0.65854   1.000
    O124    O    0.42963   0.39001   0.65857   1.000
    O125    O    0.43842   0.33927   0.72208   1.000
    O126    O    0.50261   0.44395   0.61148   1.000
    O127    O    0.44910   0.40961   0.59484   1.000
    C128    C    0.53906   0.11150   0.34143   1.000
    O129    O    0.56157   0.16075   0.27789   1.000
    O130    O    0.49737   0.05608   0.38850   1.000
    O131    O    0.55089   0.09042   0.40513   1.000
    O132    O    0.57035   0.11001   0.34140   1.000
    C133    C    0.46093   0.88853   0.65854   1.000
    O134    O    0.42963   0.89002   0.65857   1.000
    O135    O    0.43841   0.83929   0.72208   1.000
    O136    O    0.50261   0.94396   0.61148   1.000
    O137    O    0.44910   0.90962   0.59484   1.000
    C138    C    0.07324   0.28125   0.90742   1.000
    O139    O    0.09116   0.29366   0.91381   1.000
    O140    O    0.16031   0.25651   0.89256   1.000
    O141    O    0.09708   0.21485   0.93834   1.000
    O142    O    0.00003   0.27980   0.89216   1.000
    O143    O    0.00829   0.32881   0.92131   1.000
    C144    C    0.31926   0.14703   0.55159   1.000
    O145    O    0.33719   0.15857   0.55881   1.000
    O146    O    0.34469   0.16479   0.49114   1.000
    O147    O    0.40646   0.12314   0.53693   1.000
    O148    O    0.25470   0.17798   0.58434   1.000
    O149    O    0.24645   0.12897   0.55520   1.000
    C150    C    0.31926   0.14702   0.05158   1.000
    O151    O    0.33719   0.15856   0.05878   1.000
    O152    O    0.25471   0.17797   0.08434   1.000
    O153    O    0.24645   0.12896   0.05519   1.000
    O154    O    0.34469   0.16478   0.99114   1.000
    O155    O    0.40646   0.12313   0.03693   1.000
    C156    C    0.42674   0.71879   0.59255   1.000
    O157    O    0.40882   0.70638   0.58615   1.000
    O158    O    0.40290   0.78519   0.56163   1.000
    O159    O    0.33967   0.74353   0.60741   1.000
    O160    O    0.49994   0.72024   0.60781   1.000
    O161    O    0.49169   0.67123   0.57866   1.000
    C162    C    0.81926   0.14702   0.05161   1.000
    O163    O    0.83719   0.15856   0.05883   1.000
    O164    O    0.84468   0.16478   0.99116   1.000
    O165    O    0.90646   0.12313   0.03694   1.000
    O166    O    0.75470   0.17797   0.08435   1.000
    O167    O    0.74645   0.12896   0.05521   1.000
    C168    C    0.81925   0.14703   0.55160   1.000
    O169    O    0.83718   0.15856   0.55882   1.000
    O170    O    0.84468   0.16478   0.49114   1.000
    O171    O    0.90645   0.12313   0.53693   1.000
    O172    O    0.75470   0.17798   0.58434   1.000
    O173    O    0.74644   0.12897   0.55520   1.000
    C174    C    0.92674   0.71878   0.09255   1.000
    O175    O    0.90290   0.78518   0.06163   1.000
    O176    O    0.83967   0.74353   0.10742   1.000
    O177    O    0.99995   0.72024   0.10781   1.000
    O178    O    0.99169   0.67123   0.07867   1.000
    O179    O    0.90883   0.70638   0.08616   1.000
    C180    C    0.07324   0.78126   0.40744   1.000
    O181    O    0.16031   0.75651   0.39256   1.000
    O182    O    0.09708   0.71486   0.43835   1.000
    O183    O    0.00004   0.77980   0.39218   1.000
    O184    O    0.00829   0.82882   0.42132   1.000
    O185    O    0.09116   0.79367   0.41383   1.000
    C186    C    0.42675   0.21877   0.09255   1.000
    O187    O    0.40883   0.20636   0.08615   1.000
    O188    O    0.49995   0.22023   0.10781   1.000
    O189    O    0.49169   0.17121   0.07867   1.000
    O190    O    0.40291   0.28517   0.06163   1.000
    O191    O    0.33968   0.24352   0.10742   1.000
    C192    C    0.27457   0.89284   0.65660   1.000
    O193    O    0.29108   0.84253   0.72056   1.000
    O194    O    0.30130   0.91317   0.59331   1.000
    O195    O    0.22982   0.94751   0.60994   1.000
    O196    O    0.30545   0.89292   0.65727   1.000
    C197    C    0.68072   0.35300   0.94813   1.000
    O198    O    0.74528   0.32205   0.91550   1.000
    O199    O    0.75353   0.37106   0.94464   1.000
    O200    O    0.66279   0.34147   0.94103   1.000
    O201    O    0.59352   0.37690   0.96274   1.000
    O202    O    0.65530   0.33524   0.00852   1.000
    C203    C    0.18073   0.35300   0.94833   1.000
    O204    O    0.16280   0.34147   0.94110   1.000
    O205    O    0.15530   0.33524   0.00880   1.000
    O206    O    0.09353   0.37690   0.96301   1.000
    O207    O    0.24528   0.32205   0.91560   1.000
    O208    O    0.25354   0.37106   0.94474   1.000
    C209    C    0.18073   0.35300   0.44838   1.000
    O210    O    0.16280   0.34146   0.44115   1.000
    O211    O    0.09353   0.37689   0.46304   1.000
    O212    O    0.15530   0.33524   0.50882   1.000
    O213    O    0.24529   0.32204   0.41562   1.000
    O214    O    0.25354   0.37106   0.44478   1.000
    C215    C    0.77457   0.89284   0.15662   1.000
    O216    O    0.72982   0.94750   0.10995   1.000
    O217    O    0.80130   0.91317   0.09331   1.000
    O218    O    0.80545   0.89291   0.15728   1.000
    O219    O    0.79108   0.84253   0.22058   1.000
    C220    C    0.96093   0.38851   0.15855   1.000
    O221    O    0.92963   0.39000   0.15858   1.000
    O222    O    0.00262   0.44394   0.11149   1.000
    O223    O    0.94910   0.40961   0.09485   1.000
    O224    O    0.93842   0.33927   0.22208   1.000
    C225    C    0.46093   0.88853   0.15855   1.000
    O226    O    0.42963   0.89002   0.15858   1.000
    O227    O    0.50262   0.94395   0.11149   1.000
    O228    O    0.44910   0.90962   0.09485   1.000
    O229    O    0.43842   0.83928   0.22208   1.000
    C230    C    0.03906   0.61152   0.34143   1.000
    O231    O    0.06157   0.66077   0.27789   1.000
    O232    O    0.07035   0.61003   0.34140   1.000
    O233    O    0.05089   0.59043   0.40513   1.000
    O234    O    0.99737   0.55609   0.38850   1.000
    C235    C    0.07324   0.78127   0.90738   1.000
    O236    O    0.09115   0.79368   0.91378   1.000
    O237    O    0.00003   0.77981   0.89213   1.000
    O238    O    0.00829   0.82883   0.92127   1.000
    O239    O    0.16030   0.75652   0.89254   1.000
    O240    O    0.09708   0.71487   0.93832   1.000
    C241    C    0.31926   0.64703   0.05154   1.000
    O242    O    0.25470   0.67799   0.08432   1.000
    O243    O    0.24645   0.62897   0.05518   1.000
    O244    O    0.33719   0.65857   0.05872   1.000
    O245    O    0.34468   0.66479   0.99113   1.000
    O246    O    0.40646   0.62314   0.03691   1.000
    C247    C    0.92674   0.21878   0.59254   1.000
    O248    O    0.99995   0.22023   0.60780   1.000
    O249    O    0.99169   0.17122   0.57866   1.000
    O250    O    0.90882   0.20637   0.58615   1.000
    O251    O    0.90290   0.28517   0.56163   1.000
    O252    O    0.83967   0.24352   0.60740   1.000
    C253    C    0.03905   0.61152   0.84130   1.000
    O254    O    0.07035   0.61003   0.84133   1.000
    O255    O    0.05088   0.59043   0.90497   1.000
    O256    O    0.99737   0.55610   0.88833   1.000
    O257    O    0.06156   0.66077   0.77782   1.000
    C258    C    0.53905   0.61152   0.84130   1.000
    O259    O    0.49736   0.55610   0.88833   1.000
    O260    O    0.55088   0.59043   0.90497   1.000
    O261    O    0.57035   0.61003   0.84133   1.000
    O262    O    0.56156   0.66077   0.77782   1.000
    C263    C    0.77457   0.39282   0.15662   1.000
    O264    O    0.72982   0.44750   0.10995   1.000
    O265    O    0.80130   0.41316   0.09331   1.000
    O266    O    0.80546   0.39290   0.15728   1.000
    O267    O    0.79109   0.34251   0.22056   1.000
    C268    C    0.22541   0.60721   0.34336   1.000
    O269    O    0.19453   0.60714   0.34270   1.000
    O270    O    0.19868   0.58688   0.40666   1.000
    O271    O    0.27017   0.55254   0.39003   1.000
    O272    O    0.20890   0.65752   0.27941   1.000
    C273    C    0.42674   0.21877   0.59253   1.000
    O274    O    0.40883   0.20636   0.58614   1.000
    O275    O    0.49995   0.22023   0.60780   1.000
    O276    O    0.49169   0.17122   0.57866   1.000
    O277    O    0.40290   0.28517   0.56162   1.000
    O278    O    0.33968   0.24352   0.60740   1.000
    C279    C    0.46093   0.38851   0.15855   1.000
    O280    O    0.43842   0.33927   0.22208   1.000
    O281    O    0.42964   0.39000   0.15858   1.000
    O282    O    0.50262   0.44394   0.11149   1.000
    O283    O    0.44910   0.40961   0.09485   1.000
    C284    C    0.27457   0.39282   0.15662   1.000
    O285    O    0.22982   0.44749   0.10995   1.000
    O286    O    0.30130   0.41316   0.09331   1.000
    O287    O    0.30546   0.39290   0.15728   1.000
    O288    O    0.29109   0.34251   0.22056   1.000
    C289    C    0.72541   0.10720   0.34336   1.000
    O290    O    0.69453   0.10712   0.34270   1.000
    O291    O    0.77017   0.05253   0.39003   1.000
    O292    O    0.69868   0.08686   0.40666   1.000
    O293    O    0.70890   0.15751   0.27941   1.000
    C294    C    0.72541   0.10720   0.84335   1.000
    O295    O    0.77016   0.05254   0.89002   1.000
    O296    O    0.69868   0.08687   0.90666   1.000
    O297    O    0.70889   0.15751   0.77940   1.000
    O298    O    0.69453   0.10713   0.84269   1.000
    C299    C    0.81925   0.64705   0.55159   1.000
    O300    O    0.83718   0.65858   0.55881   1.000
    O301    O    0.75470   0.67800   0.58434   1.000
    O302    O    0.74644   0.62898   0.55520   1.000
    O303    O    0.84468   0.66480   0.49115   1.000
    O304    O    0.90645   0.62315   0.53693   1.000
    C305    C    0.68072   0.85301   0.94837   1.000
    O306    O    0.66279   0.84148   0.94115   1.000
    O307    O    0.74528   0.82206   0.91563   1.000
    O308    O    0.75353   0.87108   0.94477   1.000
    O309    O    0.59352   0.87691   0.96304   1.000
    O310    O    0.65529   0.83526   0.00882   1.000
    C311    C    0.31925   0.64705   0.55159   1.000
    O312    O    0.34468   0.66480   0.49114   1.000
    O313    O    0.40645   0.62315   0.53693   1.000
    O314    O    0.25470   0.67800   0.58434   1.000
    O315    O    0.24644   0.62898   0.55520   1.000
    O316    O    0.33719   0.65858   0.55881   1.000
    C317    C    0.18073   0.85302   0.44837   1.000
    O318    O    0.16280   0.84148   0.44115   1.000
    O319    O    0.24528   0.82206   0.41562   1.000
    O320    O    0.25354   0.87108   0.44477   1.000
    O321    O    0.09353   0.87691   0.46304   1.000
    O322    O    0.15530   0.83526   0.50882   1.000
    C323    C    0.27457   0.89284   0.15662   1.000
    O324    O    0.30546   0.89291   0.15728   1.000
    O325    O    0.29109   0.84253   0.22056   1.000
    O326    O    0.22982   0.94750   0.10995   1.000
    O327    O    0.30130   0.91317   0.09331   1.000
    C328    C    0.72541   0.60721   0.34336   1.000
    O329    O    0.77016   0.55254   0.39003   1.000
    O330    O    0.69868   0.58688   0.40666   1.000
    O331    O    0.70890   0.65752   0.27941   1.000
    O332    O    0.69453   0.60714   0.34270   1.000
    C333    C    0.77457   0.89284   0.65660   1.000
    O334    O    0.80545   0.89292   0.65727   1.000
    O335    O    0.72981   0.94751   0.60994   1.000
    O336    O    0.80130   0.91317   0.59331   1.000
    O337    O    0.79108   0.84253   0.72056   1.000
    C338    C    0.96092   0.88853   0.65854   1.000
    O339    O    0.93841   0.83929   0.72208   1.000
    O340    O    0.92963   0.89002   0.65857   1.000
    O341    O    0.00261   0.94396   0.61148   1.000
    O342    O    0.94909   0.90962   0.59484   1.000
    C343    C    0.92675   0.21877   0.09255   1.000
    O344    O    0.99995   0.22023   0.10781   1.000
    O345    O    0.99169   0.17121   0.07867   1.000
    O346    O    0.90883   0.20636   0.08616   1.000
    O347    O    0.90290   0.28517   0.06163   1.000
    O348    O    0.83968   0.24352   0.10741   1.000
    C349    C    0.68073   0.35300   0.44837   1.000
    O350    O    0.59353   0.37689   0.46304   1.000
    O351    O    0.65530   0.33524   0.50882   1.000
    O352    O    0.74528   0.32205   0.41562   1.000
    O353    O    0.75354   0.37106   0.44477   1.000
    O354    O    0.66280   0.34147   0.44115   1.000
    C355    C    0.53905   0.11151   0.84130   1.000
    O356    O    0.57035   0.11002   0.84133   1.000
    O357    O    0.49737   0.05609   0.88833   1.000
    O358    O    0.55088   0.09042   0.90497   1.000
    O359    O    0.56156   0.16076   0.77782   1.000
    C360    C    0.03906   0.11151   0.34143   1.000
    O361    O    0.99737   0.05608   0.38850   1.000
    O362    O    0.05089   0.09042   0.40513   1.000
    O363    O    0.06157   0.16075   0.27789   1.000
    O364    O    0.07035   0.11002   0.34140   1.000
    C365    C    0.22541   0.60722   0.84335   1.000
    O366    O    0.20889   0.65752   0.77940   1.000
    O367    O    0.19868   0.58688   0.90666   1.000
    O368    O    0.27016   0.55254   0.89002   1.000
    O369    O    0.19453   0.60714   0.84269   1.000
    C370    C    0.57324   0.28125   0.40743   1.000
    O371    O    0.59116   0.29365   0.41383   1.000
    O372    O    0.50004   0.27979   0.39216   1.000
    O373    O    0.50829   0.32880   0.42132   1.000
    O374    O    0.66031   0.25650   0.39256   1.000
    O375    O    0.59708   0.21485   0.43835   1.000
    C376    C    0.57323   0.78127   0.90740   1.000
    O377    O    0.66030   0.75652   0.89255   1.000
    O378    O    0.59707   0.71487   0.93833   1.000
    O379    O    0.59115   0.79368   0.91380   1.000
    O380    O    0.50003   0.77981   0.89213   1.000
    O381    O    0.50829   0.82883   0.92128   1.000
    C382    C    0.07324   0.28125   0.40741   1.000
    O383    O    0.16031   0.25650   0.39254   1.000
    O384    O    0.09708   0.21485   0.43833   1.000
    O385    O    0.00004   0.27979   0.39215   1.000
    O386    O    0.00829   0.32881   0.42130   1.000
    O387    O    0.09116   0.29366   0.41379   1.000
    C388    C    0.57324   0.28125   0.90742   1.000
    O389    O    0.59115   0.29366   0.91382   1.000
    O390    O    0.66030   0.25651   0.89256   1.000
    O391    O    0.59708   0.21485   0.93834   1.000
    O392    O    0.50004   0.27980   0.89216   1.000
    O393    O    0.50829   0.32881   0.92131   1.000
    C394    C    0.03906   0.11151   0.84130   1.000
    O395    O    0.06157   0.16076   0.77782   1.000
    O396    O    0.99737   0.05609   0.88833   1.000
    O397    O    0.05089   0.09042   0.90497   1.000
    O398    O    0.07035   0.11002   0.84133   1.000
    C399    C    0.53905   0.61152   0.34143   1.000
    O400    O    0.49737   0.55609   0.38850   1.000
    O401    O    0.55088   0.59043   0.40513   1.000
    O402    O    0.57035   0.61003   0.34140   1.000
    O403    O    0.56157   0.66077   0.27789   1.000
    C404    C    0.68073   0.85301   0.44837   1.000
    O405    O    0.66279   0.84148   0.44115   1.000
    O406    O    0.74528   0.82206   0.41563   1.000
    O407    O    0.75354   0.87107   0.44477   1.000
    O408    O    0.59353   0.87691   0.46304   1.000
    O409    O    0.65530   0.83526   0.50882   1.000
    C410    C    0.18073   0.85301   0.94837   1.000
    O411    O    0.16279   0.84148   0.94115   1.000
    O412    O    0.24528   0.82206   0.91563   1.000
    O413    O    0.25353   0.87107   0.94477   1.000
    O414    O    0.09352   0.87691   0.96304   1.000
    O415    O    0.15530   0.83526   0.00882   1.000
    O416    O    0.50966   0.35729   0.65631   1.000
    O417    O    0.73709   0.36069   0.65479   1.000
    O418    O    0.23709   0.86071   0.65479   1.000
    O419    O    0.50966   0.35729   0.15632   1.000
    O420    O    0.73709   0.36069   0.15480   1.000
    O421    O    0.99032   0.64275   0.84354   1.000
    O422    O    0.76288   0.63935   0.84518   1.000
    O423    O    0.99033   0.64275   0.34366   1.000
    O424    O    0.26289   0.13933   0.34517   1.000
    O425    O    0.00965   0.85730   0.15632   1.000
    O426    O    0.23709   0.86070   0.15480   1.000
    O427    O    0.00966   0.35729   0.15632   1.000
    O428    O    0.23710   0.36069   0.15480   1.000
    O429    O    0.00965   0.85731   0.65631   1.000
    O430    O    0.76289   0.63935   0.34519   1.000
    O431    O    0.50966   0.85730   0.15632   1.000
    O432    O    0.99033   0.14274   0.84354   1.000
    O433    O    0.99033   0.14273   0.34365   1.000
    O434    O    0.23709   0.36069   0.65479   1.000
    O435    O    0.00965   0.35729   0.65631   1.000
    O436    O    0.73709   0.86070   0.15480   1.000
    O437    O    0.50965   0.85731   0.65631   1.000
    O438    O    0.73709   0.86071   0.65479   1.000
    O439    O    0.26289   0.63935   0.84518   1.000
    O440    O    0.49032   0.64275   0.84354   1.000
    O441    O    0.26289   0.63935   0.34517   1.000
    O442    O    0.49033   0.64275   0.34365   1.000
    O443    O    0.26289   0.13934   0.84518   1.000
    O444    O    0.49032   0.14274   0.84354   1.000
    O445    O    0.49033   0.14273   0.34365   1.000
    O446    O    0.76289   0.13934   0.84518   1.000
    O447    O    0.76289   0.13933   0.34517   1.000
loop_
    _geom_bond_atom_site_label_1
    _geom_bond_atom_site_label_2
    _geom_bond_distance
    _geom_bond_site_symmetry_2
    _ccdc_geom_bond_type
    C64    O65       0.39224      .   S
    C32    O65       0.78198      .   S
    C64    O66       1.14410  1_655   S
    Zr27   O66       2.48560      .   S
    C64    O67       1.14545      .   S
    Zr12   O67       2.49912      .   S
    C64    O68       1.19144      .   S
    Zr5    O68       2.55232      .   S
    C69    O70       0.38812      .   S
    C38    O70       0.77566      .   S
    C69    O71       1.00044      .   S
    Zr22   O71       2.33693      .   S
    C69    O72       1.18836      .   S
    Zr30   O72       2.55247      .   S
    C69    O73       1.07105      .   S
    Zr11   O73       2.41783  1_556   S
    C69    O74       1.18671      .   S
    Zr18   O74       2.60533      .   S
    C75    O76       1.19883      .   S
    Zr22   O76       2.58837      .   S
    C75    O77       0.98832      .   S
    Zr30   O77       2.29507      .   S
    C75    O78       1.09872  1_554   S
    Zr7    O78       2.46854      .   S
    C75    O79       1.18181      .   S
    Zr26   O79       2.60262  1_455   S
    C75    O80       0.38663      .   S
    C55    O80       0.77363      .   S
    C81    O82       0.39070      .   S
    C45    O82       0.78043      .   S
    C81    O83       1.19599      .   S
    Zr17   O83       2.57002      .   S
    C81    O84       1.14734      .   S
    Zr24   O84       2.50983  1_554   S
    C81    O85       1.13415      .   S
    Zr11   O85       2.46768  1_565   S
    C86    O87       1.18668      .   S
    Zr6    O87       2.60526      .   S
    C86    O88       1.07102      .   S
    Zr31   O88       2.41772      .   S
    C86    O89       0.38782      .   S
    C48    O89       0.77478      .   S
    C86    O90       1.00051      .   S
    Zr2    O90       2.33723      .   S
    C86    O91       1.18838      .   S
    Zr10   O91       2.55256      .   S
    C92    O93       0.39070      .   S
    C32    O93       0.78044      .   S
    C92    O94       1.14719      .   S
    Zr12   O94       2.50947      .   S
    C92    O95       1.13418      .   S
    Zr31   O95       2.46786      .   S
    C92    O96       1.19605      .   S
    Zr5    O96       2.57014      .   S
    C97    O98       1.13418      .   S
    Zr27   O98       2.46786      .   S
    C97    O99       1.14719      .   S
    Zr8    O99       2.50947      .   S
    C97    O100      0.39070      .   S
    C36    O100      0.78043      .   S
    C97    O101      1.19605      .   S
    Zr1    O101      2.57014      .   S
    C102   O103      0.39070      .   S
    C63    O103      0.78043      .   S
    C102   O104      1.19599      .   S
    Zr23   O104      2.57001      .   S
    C102   O105      1.13422      .   S
    Zr13   O105      2.46790      .   S
    C102   O106      1.14734      .   S
    Zr30   O106      2.50982  1_554   S
    C107   O108      0.38791      .   S
    C43    O108      0.77480      .   S
    C107   O109      1.07105      .   S
    Zr14   O109      2.41776      .   S
    C107   O110      1.18673      .   S
    Zr23   O110      2.60532      .   S
    C107   O111      1.00047      .   S
    Zr19   O111      2.33690  1_455   S
    C107   O112      1.18834      .   S
    Zr27   O112      2.55246  1_455   S
    C113   O114      0.39071      .   S
    C49    O114      0.78043      .   S
    C113   O115      1.14727      .   S
    Zr25   O115      2.50963      .   S
    C113   O116      1.13415      .   S
    Zr10   O116      2.46766  1_565   S
    C113   O117      1.19599      .   S
    Zr16   O117      2.57002      .   S
    C118   O119      0.39224      .   S
    C41    O119      0.78198      .   S
    C118   O120      1.14404  1_655   S
    Zr24   O120      2.48536  1_545   S
    C118   O121      1.14554      .   S
    Zr15   O121      2.49939  1_556   S
    C118   O122      1.19144      .   S
    Zr6    O122      2.55233      .   S
    C123   O124      0.39224      .   S
    C36    O124      0.78198      .   S
    C123   O125      1.19144      .   S
    Zr1    O125      2.55232      .   S
    C123   O126      1.14409      .   S
    Zr31   O126      2.48556      .   S
    C123   O127      1.14545      .   S
    Zr8    O127      2.49912      .   S
    C128   O129      1.19140      .   S
    Zr20   O129      2.55223      .   S
    C128   O130      1.14405      .   S
    Zr10   O130      2.48536  1_565   S
    C128   O131      1.14550      .   S
    Zr29   O131      2.49926      .   S
    C128   O132      0.39224      .   S
    C51    O132      0.78198      .   S
    C133   O134      0.39224      .   S
    C47    O134      0.78198      .   S
    C133   O135      1.19144      .   S
    Zr3    O135      2.55232      .   S
    C133   O136      1.14403      .   S
    Zr29   O136      2.48533  1_545   S
    C133   O137      1.14545      .   S
    Zr10   O137      2.49913      .   S
    C138   O139      0.38771      .   S
    C59    O139      0.77443      .   S
    C138   O140      1.18670      .   S
    Zr1    O140      2.60530      .   S
    C138   O141      1.07108      .   S
    Zr24   O141      2.41791  1_554   S
    C138   O142      1.00044      .   S
    Zr5    O142      2.33686  1_655   S
    C138   O143      1.18840      .   S
    Zr13   O143      2.55256  1_655   S
    C144   O145      0.38660      .   S
    C54    O145      0.77351      .   S
    C144   O146      1.09887      .   S
    Zr0    O146      2.46892      .   S
    C144   O147      1.18179      .   S
    Zr29   O147      2.60256      .   S
    C144   O148      1.19882      .   S
    Zr17   O148      2.58835      .   S
    C144   O149      0.98833      .   S
    Zr25   O149      2.29509      .   S
    C150   O151      0.38642      .   S
    C57    O151      0.77368      .   S
    C150   O152      1.19900      .   S
    Zr16   O152      2.58855      .   S
    C150   O153      0.98829      .   S
    Zr24   O153      2.29495      .   S
    C150   O154      1.09849  1_554   S
    Zr1    O154      2.46831      .   S
    C150   O155      1.18171      .   S
    Zr28   O155      2.60253      .   S
    C156   O157      0.38785      .   S
    C40    O157      0.77482      .   S
    C156   O158      1.07104      .   S
    Zr10   O158      2.41777      .   S
    C156   O159      1.18670      .   S
    Zr19   O159      2.60529      .   S
    C156   O160      1.00042      .   S
    Zr23   O160      2.33685      .   S
    C156   O161      1.18836      .   S
    Zr31   O161      2.55250      .   S
    C162   O163      0.38663      .   S
    C33    O163      0.77360      .   S
    C162   O164      1.09875  1_554   S
    Zr5    O164      2.46856      .   S
    C162   O165      1.18181      .   S
    Zr24   O165      2.60260  1_455   S
    C162   O166      1.19882      .   S
    Zr20   O166      2.58836      .   S
    C162   O167      0.98833      .   S
    Zr28   O167      2.29507      .   S
    C168   O169      0.38663      .   S
    C56    O169      0.77361      .   S
    C168   O170      1.09890      .   S
    Zr4    O170      2.46895      .   S
    C168   O171      1.18180      .   S
    Zr25   O171      2.60261  1_455   S
    C168   O172      1.19882      .   S
    Zr21   O172      2.58837      .   S
    C168   O173      0.98832      .   S
    Zr29   O173      2.29507      .   S
    C174   O175      1.07109      .   S
    Zr15   O175      2.41791  1_556   S
    C174   O176      1.18670      .   S
    Zr22   O176      2.60531      .   S
    C174   O177      1.00045      .   S
    Zr18   O177      2.33688  1_455   S
    C174   O178      1.18837      .   S
    Zr26   O178      2.55253  1_455   S
    C174   O179      0.38784      .   S
    C55    O179      0.77483      .   S
    C180   O181      1.18677      .   S
    Zr2    O181      2.60550      .   S
    C180   O182      1.07100      .   S
    Zr27   O182      2.41767      .   S
    C180   O183      1.00044      .   S
    Zr6    O183      2.33686  1_655   S
    C180   O184      1.18840      .   S
    Zr14   O184      2.55258  1_655   S
    C180   O185      0.38783      .   S
    C62    O185      0.77480      .   S
    C186   O187      0.38795      .   S
    C57    O187      0.77518      .   S
    C186   O188      1.00043      .   S
    Zr20   O188      2.33685      .   S
    C186   O189      1.18835      .   S
    Zr28   O189      2.55250      .   S
    C186   O190      1.07109      .   S
    Zr9    O190      2.41791  1_556   S
    C186   O191      1.18669      .   S
    Zr16   O191      2.60531      .   S
    C192   O193      1.19605      .   S
    Zr3    O193      2.57014      .   S
    C192   O194      1.14719      .   S
    Zr10   O194      2.50947      .   S
    C192   O195      1.13411      .   S
    Zr25   O195      2.46762  1_545   S
    C192   O196      0.39070      .   S
    C47    O196      0.78043      .   S
    C197   O198      1.19739      .   S
    Zr5    O198      2.58667      .   S
    C197   O199      0.98866      .   S
    Zr13   O199      2.29619      .   S
    C197   O200      0.38517      .   S
    C61    O200      0.77217      .   S
    C197   O201      1.18149      .   S
    Zr9    O201      2.60306      .   S
    C197   O202      1.09781  1_556   S
    Zr20   O202      2.47365      .   S
    C203   O204      0.38680      .   S
    C59    O204      0.77354      .   S
    C203   O205      1.09909  1_556   S
    Zr16   O205      2.46898      .   S
    C203   O206      1.18192      .   S
    Zr13   O206      2.60265  1_655   S
    C203   O207      1.19865      .   S
    Zr1    O207      2.58799      .   S
    C203   O208      0.98837      .   S
    Zr9    O208      2.29531      .   S
    C209   O210      0.38670      .   S
    C46    O210      0.77386      .   S
    C209   O211      1.18182      .   S
    Zr12   O211      2.60263  1_655   S
    C209   O212      1.09869      .   S
    Zr17   O212      2.46840      .   S
    C209   O213      1.19896      .   S
    Zr0    O213      2.58876      .   S
    C209   O214      0.98833      .   S
    Zr8    O214      2.29513      .   S
    C215   O216      1.13413      .   S
    Zr28   O216      2.46763  1_545   S
    C215   O217      1.14730      .   S
    Zr15   O217      2.50970  1_556   S
    C215   O218      0.39071      .   S
    C41    O218      0.78043      .   S
    C215   O219      1.19603      .   S
    Zr6    O219      2.57012      .   S
    C220   O221      0.39223      .   S
    C42    O221      0.78198      .   S
    C220   O222      1.14410  1_655   S
    Zr26   O222      2.48559      .   S
    C220   O223      1.14554      .   S
    Zr13   O223      2.49939  1_556   S
    C220   O224      1.19127      .   S
    Zr4    O224      2.55186      .   S
    C225   O226      0.39223      .   S
    C44    O226      0.78198      .   S
    C225   O227      1.14403      .   S
    Zr28   O227      2.48533  1_545   S
    C225   O228      1.14554      .   S
    Zr11   O228      2.49939  1_556   S
    C225   O229      1.19127      .   S
    Zr2    O229      2.55186      .   S
    C230   O231      1.19140      .   S
    Zr18   O231      2.55223      .   S
    C230   O232      0.39224      .   S
    C34    O232      0.78198      .   S
    C230   O233      1.14550      .   S
    Zr27   O233      2.49926      .   S
    C230   O234      1.14412  1_455   S
    Zr12   O234      2.48562      .   S
    C235   O236      0.38786      .   S
    C58    O236      0.77495      .   S
    C235   O237      1.00043      .   S
    Zr7    O237      2.33647  1_655   S
    C235   O238      1.18840      .   S
    Zr15   O238      2.55294  1_655   S
    C235   O239      1.18659      .   S
    Zr3    O239      2.60519      .   S
    C235   O240      1.07115      .   S
    Zr26   O240      2.41807  1_554   S
    C241   O242      1.19923      .   S
    Zr18   O242      2.58881      .   S
    C241   O243      0.98823      .   S
    Zr26   O243      2.29476      .   S
    C241   O244      0.38614      .   S
    C38    O244      0.77371      .   S
    C241   O245      1.09819  1_554   S
    Zr3    O245      2.46802      .   S
    C241   O246      1.18160      .   S
    Zr30   O246      2.60249      .   S
    C247   O248      1.00046      .   S
    Zr17   O248      2.33690  1_455   S
    C247   O249      1.18836      .   S
    Zr25   O249      2.55251  1_455   S
    C247   O250      0.38785      .   S
    C56    O250      0.77481      .   S
    C247   O251      1.07103      .   S
    Zr12   O251      2.41770      .   S
    C247   O252      1.18671      .   S
    Zr21   O252      2.60533      .   S
    C253   O254      0.39232      .   S
    C52    O254      0.78208      .   S
    C253   O255      1.14496      .   S
    Zr26   O255      2.50248  1_554   S
    C253   O256      1.14386  1_455   S
    Zr13   O256      2.48622      .   S
    C253   O257      1.19054      .   S
    Zr19   O257      2.55145      .   S
    C258   O259      1.14385      .   S
    Zr9    O259      2.48619      .   S
    C258   O260      1.14496      .   S
    Zr30   O260      2.50248  1_554   S
    C258   O261      0.39232      .   S
    C63    O261      0.78208      .   S
    C258   O262      1.19054      .   S
    Zr23   O262      2.55145      .   S
    C263   O264      1.13419      .   S
    Zr30   O264      2.46785      .   S
    C263   O265      1.14730      .   S
    Zr13   O265      2.50970  1_556   S
    C263   O266      0.39071      .   S
    C42    O266      0.78044      .   S
    C263   O267      1.19585      .   S
    Zr4    O267      2.56962      .   S
    C268   O269      0.39070      .   S
    C34    O269      0.78043      .   S
    C268   O270      1.14727      .   S
    Zr27   O270      2.50963      .   S
    C268   O271      1.13422      .   S
    Zr8    O271      2.46790      .   S
    C268   O272      1.19599      .   S
    Zr18   O272      2.57002      .   S
    C273   O274      0.38786      .   S
    C54    O274      0.77475      .   S
    C273   O275      1.00047      .   S
    Zr21   O275      2.33692      .   S
    C273   O276      1.18829      .   S
    Zr29   O276      2.55242      .   S
    C273   O277      1.07104      .   S
    Zr8    O277      2.41770      .   S
    C273   O278      1.18671      .   S
    Zr17   O278      2.60535      .   S
    C279   O280      1.19127      .   S
    Zr0    O280      2.55187      .   S
    C279   O281      0.39224      .   S
    C37    O281      0.78198      .   S
    C279   O282      1.14409      .   S
    Zr30   O282      2.48555      .   S
    C279   O283      1.14554      .   S
    Zr9    O283      2.49939  1_556   S
    C284   O285      1.13419      .   S
    Zr26   O285      2.46785      .   S
    C284   O286      1.14730      .   S
    Zr9    O286      2.50969  1_556   S
    C284   O287      0.39071      .   S
    C37    O287      0.78043      .   S
    C284   O288      1.19585      .   S
    Zr0    O288      2.56961      .   S
    C289   O290      0.39070      .   S
    C51    O290      0.78043      .   S
    C289   O291      1.13415      .   S
    Zr14   O291      2.46767  1_565   S
    C289   O292      1.14727      .   S
    Zr29   O292      2.50963      .   S
    C289   O293      1.19599      .   S
    Zr20   O293      2.57002      .   S
    C294   O295      1.13415      .   S
    Zr15   O295      2.46768  1_565   S
    C294   O296      1.14734      .   S
    Zr28   O296      2.50983  1_554   S
    C294   O297      1.19599      .   S
    Zr21   O297      2.57002      .   S
    C294   O298      0.39070      .   S
    C53    O298      0.78043      .   S
    C299   O300      0.38660      .   S
    C43    O300      0.77350      .   S
    C299   O301      1.19882      .   S
    Zr23   O301      2.58834      .   S
    C299   O302      0.98833      .   S
    Zr31   O302      2.29509      .   S
    C299   O303      1.09865      .   S
    Zr6    O303      2.46827      .   S
    C299   O304      1.18181      .   S
    Zr27   O304      2.60261  1_455   S
    C305   O306      0.38665      .   S
    C60    O306      0.77361      .   S
    C305   O307      1.19881      .   S
    Zr7    O307      2.58834      .   S
    C305   O308      0.98833      .   S
    Zr15   O308      2.29509      .   S
    C305   O309      1.18179      .   S
    Zr11   O309      2.60255      .   S
    C305   O310      1.09875  1_556   S
    Zr22   O310      2.46856      .   S
    C311   O312      1.09887      .   S
    Zr2    O312      2.46892      .   S
    C311   O313      1.18178      .   S
    Zr31   O313      2.60255      .   S
    C311   O314      1.19883      .   S
    Zr19   O314      2.58836      .   S
    C311   O315      0.98833      .   S
    Zr27   O315      2.29509      .   S
    C311   O316      0.38662      .   S
    C40    O316      0.77362      .   S
    C317   O318      0.38665      .   S
    C62    O318      0.77363      .   S
    C317   O319      1.19895      .   S
    Zr2    O319      2.58877      .   S
    C317   O320      0.98833      .   S
    Zr10   O320      2.29510      .   S
    C317   O321      1.18182      .   S
    Zr14   O321      2.60261  1_655   S
    C317   O322      1.09874      .   S
    Zr19   O322      2.46846      .   S
    C323   O324      0.39071      .   S
    C44    O324      0.78044      .   S
    C323   O325      1.19585      .   S
    Zr2    O325      2.56961      .   S
    C323   O326      1.13413      .   S
    Zr24   O326      2.46763  1_545   S
    C323   O327      1.14730      .   S
    Zr11   O327      2.50970  1_556   S
    C328   O329      1.13422      .   S
    Zr12   O329      2.46790      .   S
    C328   O330      1.14727      .   S
    Zr31   O330      2.50963      .   S
    C328   O331      1.19599      .   S
    Zr22   O331      2.57002      .   S
    C328   O332      0.39071      .   S
    C39    O332      0.78044      .   S
    C333   O334      0.39070      .   S
    C50    O334      0.78044      .   S
    C333   O335      1.13411      .   S
    Zr29   O335      2.46762  1_545   S
    C333   O336      1.14719      .   S
    Zr14   O336      2.50947      .   S
    C333   O337      1.19605      .   S
    Zr7    O337      2.57014      .   S
    C338   O339      1.19144      .   S
    Zr7    O339      2.55232      .   S
    C338   O340      0.39224      .   S
    C50    O340      0.78199      .   S
    C338   O341      1.14404  1_655   S
    Zr25   O341      2.48536  1_545   S
    C338   O342      1.14545      .   S
    Zr14   O342      2.49912      .   S
    C343   O344      1.00047      .   S
    Zr16   O344      2.33690  1_455   S
    C343   O345      1.18836      .   S
    Zr24   O345      2.55250  1_455   S
    C343   O346      0.38785      .   S
    C33    O346      0.77480      .   S
    C343   O347      1.07108      .   S
    Zr13   O347      2.41789  1_556   S
    C343   O348      1.18671      .   S
    Zr20   O348      2.60533      .   S
    C349   O350      1.18180      .   S
    Zr8    O350      2.60256      .   S
    C349   O351      1.09872      .   S
    Zr21   O351      2.46843      .   S
    C349   O352      1.19895      .   S
    Zr4    O352      2.58877      .   S
    C349   O353      0.98834      .   S
    Zr12   O353      2.29512      .   S
    C349   O354      0.38664      .   S
    C35    O354      0.77363      .   S
    C355   O356      0.39232      .   S
    C53    O356      0.78208      .   S
    C355   O357      1.14378      .   S
    Zr11   O357      2.48595  1_565   S
    C355   O358      1.14496      .   S
    Zr28   O358      2.50248  1_554   S
    C355   O359      1.19054      .   S
    Zr21   O359      2.55145      .   S
    C360   O361      1.14406  1_455   S
    Zr14   O361      2.48539  1_565   S
    C360   O362      1.14550      .   S
    Zr25   O362      2.49926      .   S
    C360   O363      1.19140      .   S
    Zr16   O363      2.55223      .   S
    C360   O364      0.39224      .   S
    C49    O364      0.78198      .   S
    C365   O366      1.19599      .   S
    Zr19   O366      2.57002      .   S
    C365   O367      1.14734      .   S
    Zr26   O367      2.50982  1_554   S
    C365   O368      1.13421      .   S
    Zr9    O368      2.46790      .   S
    C365   O369      0.39070      .   S
    C52    O369      0.78043      .   S
    C370   O371      0.38782      .   S
    C35    O371      0.77479      .   S
    C370   O372      1.00050      .   S
    Zr0    O372      2.33724      .   S
    C370   O373      1.18839      .   S
    Zr8    O373      2.55255      .   S
    C370   O374      1.18676      .   S
    Zr4    O374      2.60548      .   S
    C370   O375      1.07102      .   S
    Zr29   O375      2.41771      .   S
    C376   O377      1.18663      .   S
    Zr7    O377      2.60523      .   S
    C376   O378      1.07112      .   S
    Zr30   O378      2.41803  1_554   S
    C376   O379      0.38797      .   S
    C60    O379      0.77492      .   S
    C376   O380      1.00046      .   S
    Zr3    O380      2.33654      .   S
    C376   O381      1.18831      .   S
    Zr11   O381      2.55283      .   S
    C382   O383      1.18671      .   S
    Zr0    O383      2.60543      .   S
    C382   O384      1.07107      .   S
    Zr25   O384      2.41782      .   S
    C382   O385      1.00047      .   S
    Zr4    O385      2.33711  1_655   S
    C382   O386      1.18846      .   S
    Zr12   O386      2.55269  1_655   S
    C382   O387      0.38772      .   S
    C46    O387      0.77485      .   S
    C388   O389      0.38784      .   S
    C61    O389      0.77481      .   S
    C388   O390      1.18669      .   S
    Zr5    O390      2.60528      .   S
    C388   O391      1.07108      .   S
    Zr28   O391      2.41792  1_554   S
    C388   O392      1.00041      .   S
    Zr1    O392      2.33683      .   S
    C388   O393      1.18837      .   S
    Zr9    O393      2.55254      .   S
    C394   O395      1.19054      .   S
    Zr17   O395      2.55146      .   S
    C394   O396      1.14380  1_455   S
    Zr15   O396      2.48599  1_565   S
    C394   O397      1.14496      .   S
    Zr24   O397      2.50248  1_554   S
    C394   O398      0.39232      .   S
    C45    O398      0.78208      .   S
    C399   O400      1.14411      .   S
    Zr8    O400      2.48558      .   S
    C399   O401      1.14550      .   S
    Zr31   O401      2.49926      .   S
    C399   O402      0.39224      .   S
    C39    O402      0.78198      .   S
    C399   O403      1.19140      .   S
    Zr22   O403      2.55223      .   S
    C404   O405      0.38664      .   S
    C48    O405      0.77362      .   S
    C404   O406      1.19879      .   S
    Zr6    O406      2.58827      .   S
    C404   O407      0.98834      .   S
    Zr14   O407      2.29513      .   S
    C404   O408      1.18181      .   S
    Zr10   O408      2.60257      .   S
    C404   O409      1.09872      .   S
    Zr23   O409      2.46843      .   S
    C410   O411      0.38672      .   S
    C58    O411      0.77383      .   S
    C410   O412      1.19881      .   S
    Zr3    O412      2.58834      .   S
    C410   O413      0.98833      .   S
    Zr11   O413      2.29510      .   S
    C410   O414      1.18181      .   S
    Zr15   O414      2.60261  1_655   S
    C410   O415      1.09876  1_556   S
    Zr18   O415      2.46856      .   S
    Zr21   O416      2.19640      .   S
    C123   O416      0.78202      .   S
    Zr21   O417      2.20480      .   S
    C92    O417      0.78130      .   S
    C192   O418      0.78130      .   S
    Zr19   O418      2.20481      .   S
    Zr20   O419      2.19640      .   S
    C279   O419      0.78202      .   S
    Zr20   O420      2.20481      .   S
    C263   O420      0.78131      .   S
    Zr7    O421      2.19712      .   S
    C253   O421      0.78212  1_455   S
    Zr7    O422      2.20487      .   S
    C102   O422      0.78133      .   S
    C230   O423      0.78205  1_455   S
    Zr6    O423      2.19650      .   S
    C113   O424      0.78123      .   S
    Zr0    O424      2.20456      .   S
    Zr18   O425      2.19644      .   S
    C118   O425      0.78203  1_655   S
    Zr18   O426      2.20480      .   S
    C323   O426      0.78131      .   S
    Zr16   O427      2.19645      .   S
    C220   O427      0.78203  1_655   S
    Zr16   O428      2.20481      .   S
    C284   O428      0.78131      .   S
    Zr19   O429      2.19645      .   S
    C338   O429      0.78203  1_655   S
    C328   O430      0.78133      .   S
    Zr6    O430      2.20486      .   S
    C225   O431      0.78202      .   S
    Zr22   O431      2.19641      .   S
    C394   O432      0.78212  1_455   S
    Zr5    O432      2.19712      .   S
    C360   O433      0.78198  1_455   S
    Zr4    O433      2.19627      .   S
    Zr17   O434      2.20479      .   S
    C97    O434      0.78130      .   S
    Zr17   O435      2.19645      .   S
    C64    O435      0.78204  1_655   S
    Zr22   O436      2.20480      .   S
    C215   O436      0.78131      .   S
    Zr23   O437      2.19642      .   S
    C133   O437      0.78202      .   S
    Zr23   O438      2.20480      .   S
    C333   O438      0.78130      .   S
    Zr3    O439      2.20486      .   S
    C365   O439      0.78133      .   S
    Zr3    O440      2.19708      .   S
    C258   O440      0.78211      .   S
    Zr2    O441      2.20457      .   S
    C268   O441      0.78123      .   S
    Zr2    O442      2.19623      .   S
    C399   O442      0.78197      .   S
    Zr1    O443      2.20487      .   S
    C81    O443      0.78133      .   S
    Zr1    O444      2.19707      .   S
    C355   O444      0.78211      .   S
    Zr0    O445      2.19624      .   S
    C128   O445      0.78197      .   S
    Zr5    O446      2.20486      .   S
    C294   O446      0.78133      .   S
    Zr4    O447      2.20456      .   S
    C289   O447      0.78123      .   S
