# CIF file generated by openbabel 2.4.90, see http://openbabel.sf.net
data_I
_chemical_name_common ''
_cell_length_a 12.599
_cell_length_b 17.292
_cell_length_c 19.294
_cell_angle_alpha 65.181
_cell_angle_beta 84.55
_cell_angle_gamma 83.659
_space_group_name_H-M_alt 'P 1'
_space_group_name_Hall 'P 1'
loop_
    _symmetry_equiv_pos_as_xyz
    x,y,z
loop_
    _atom_site_label
    _atom_site_type_symbol
    _atom_site_fract_x
    _atom_site_fract_y
    _atom_site_fract_z
    _atom_site_occupancy
    Zr0     Zr   0.35994   0.23529   0.35010   1.000
    Zr1     Zr   0.35994   0.23530   0.85014   1.000
    Zr2     Zr   0.35994   0.73531   0.35010   1.000
    Zr3     Zr   0.35994   0.73531   0.85014   1.000
    Zr4     Zr   0.85994   0.23529   0.35010   1.000
    Zr5     Zr   0.85993   0.23530   0.85014   1.000
    Zr6     Zr   0.85993   0.73531   0.35015   1.000
    Zr7     Zr   0.85993   0.73531   0.85014   1.000
    Zr8     Zr   0.39296   0.43134   0.46672   1.000
    Zr9     Zr   0.39296   0.43134   0.96671   1.000
    Zr10    Zr   0.39296   0.93135   0.46672   1.000
    Zr11    Zr   0.39296   0.93136   0.96671   1.000
    Zr12    Zr   0.89296   0.43134   0.46672   1.000
    Zr13    Zr   0.89296   0.43134   0.96671   1.000
    Zr14    Zr   0.89296   0.93135   0.46672   1.000
    Zr15    Zr   0.89295   0.93136   0.96671   1.000
    Zr16    Zr   0.14005   0.26473   0.14984   1.000
    Zr17    Zr   0.14005   0.26473   0.64983   1.000
    Zr18    Zr   0.14005   0.76474   0.14984   1.000
    Zr19    Zr   0.14004   0.76475   0.64983   1.000
    Zr20    Zr   0.64005   0.26473   0.14984   1.000
    Zr21    Zr   0.64004   0.26473   0.64983   1.000
    Zr22    Zr   0.64004   0.76474   0.14984   1.000
    Zr23    Zr   0.64004   0.76475   0.64983   1.000
    Zr24    Zr   0.10703   0.06868   0.03327   1.000
    Zr25    Zr   0.10703   0.06869   0.53326   1.000
    Zr26    Zr   0.10703   0.56869   0.03327   1.000
    Zr27    Zr   0.10702   0.56870   0.53326   1.000
    Zr28    Zr   0.60703   0.06868   0.03327   1.000
    Zr29    Zr   0.60702   0.06869   0.53326   1.000
    Zr30    Zr   0.60702   0.56869   0.03327   1.000
    Zr31    Zr   0.60702   0.56870   0.53326   1.000
    C32     C    0.86733   0.39224   0.65827   1.000
    C33     C    0.87302   0.18202   0.07290   1.000
    C34     C    0.13265   0.60780   0.34169   1.000
    C35     C    0.62697   0.31800   0.42707   1.000
    C36     C    0.36734   0.39224   0.65827   1.000
    C37     C    0.36734   0.39223   0.15829   1.000
    C38     C    0.37302   0.68204   0.07280   1.000
    C39     C    0.63264   0.60780   0.34169   1.000
    C40     C    0.37301   0.68204   0.57289   1.000
    C41     C    0.86734   0.89225   0.15829   1.000
    C42     C    0.86734   0.39223   0.15829   1.000
    C43     C    0.87301   0.68204   0.57288   1.000
    C44     C    0.36734   0.89225   0.15829   1.000
    C45     C    0.13265   0.10779   0.84169   1.000
    C46     C    0.12697   0.31800   0.42705   1.000
    C47     C    0.36734   0.89225   0.65827   1.000
    C48     C    0.62697   0.81801   0.42707   1.000
    C49     C    0.13265   0.10779   0.34169   1.000
    C50     C    0.86733   0.89225   0.65827   1.000
    C51     C    0.63265   0.10779   0.34169   1.000
    C52     C    0.13264   0.60781   0.84169   1.000
    C53     C    0.63264   0.10779   0.84169   1.000
    C54     C    0.37301   0.18203   0.57288   1.000
    C55     C    0.87301   0.68204   0.07290   1.000
    C56     C    0.87301   0.18203   0.57289   1.000
    C57     C    0.37302   0.18202   0.07286   1.000
    C58     C    0.12697   0.81802   0.92704   1.000
    C59     C    0.12697   0.31800   0.92702   1.000
    C60     C    0.62696   0.81802   0.92707   1.000
    C61     C    0.62696   0.31800   0.92707   1.000
    C62     C    0.12697   0.81801   0.42707   1.000
    C63     C    0.63264   0.60781   0.84169   1.000
    C64     C    0.96092   0.38852   0.65854   1.000
    O65     O    0.92963   0.39001   0.65857   1.000
    O66     O    0.00261   0.44395   0.61148   1.000
    O67     O    0.94910   0.40961   0.59484   1.000
    O68     O    0.01087   0.36796   0.64062   1.000
    O69     O    0.93841   0.33927   0.72208   1.000
    O70     O    0.00844   0.34663   0.67200   1.000
    C71     C    0.42674   0.71879   0.09254   1.000
    O72     O    0.40883   0.70638   0.08613   1.000
    O73     O    0.49995   0.72024   0.10781   1.000
    O74     O    0.49169   0.67123   0.07866   1.000
    O75     O    0.40290   0.78519   0.06163   1.000
    O76     O    0.33968   0.74353   0.10741   1.000
    C77     C    0.81925   0.64704   0.05160   1.000
    O78     O    0.75470   0.67799   0.08435   1.000
    O79     O    0.74644   0.62898   0.05521   1.000
    O80     O    0.84468   0.66480   0.99116   1.000
    O81     O    0.90646   0.62314   0.03694   1.000
    O82     O    0.83719   0.65857   0.05882   1.000
    C83     C    0.22541   0.10720   0.84335   1.000
    O84     O    0.19453   0.10713   0.84269   1.000
    O85     O    0.20890   0.15751   0.77940   1.000
    O86     O    0.26387   0.15015   0.82947   1.000
    O87     O    0.26191   0.12852   0.86088   1.000
    O88     O    0.19868   0.08687   0.90666   1.000
    O89     O    0.27016   0.05254   0.89002   1.000
    C90     C    0.57324   0.78126   0.40743   1.000
    O91     O    0.66031   0.75652   0.39257   1.000
    O92     O    0.59708   0.71487   0.43835   1.000
    O93     O    0.59116   0.79367   0.41383   1.000
    O94     O    0.50004   0.77981   0.39216   1.000
    O95     O    0.50829   0.82882   0.42132   1.000
    C96     C    0.77457   0.39283   0.65660   1.000
    O97     O    0.80545   0.39290   0.65727   1.000
    O98     O    0.80130   0.41316   0.59331   1.000
    O99     O    0.73807   0.37151   0.63908   1.000
    O100    O    0.72981   0.44750   0.60994   1.000
    O101    O    0.73611   0.34988   0.67049   1.000
    O102    O    0.79108   0.34252   0.72056   1.000
    C103    C    0.27457   0.39283   0.65660   1.000
    O104    O    0.22982   0.44750   0.60994   1.000
    O105    O    0.30130   0.41316   0.59331   1.000
    O106    O    0.23807   0.37151   0.63908   1.000
    O107    O    0.30545   0.39290   0.65727   1.000
    O108    O    0.29109   0.34252   0.72056   1.000
    O109    O    0.23611   0.34988   0.67049   1.000
    C110    C    0.72541   0.60722   0.84335   1.000
    O111    O    0.69452   0.60714   0.84269   1.000
    O112    O    0.70889   0.65752   0.77940   1.000
    O113    O    0.76386   0.65017   0.82947   1.000
    O114    O    0.77016   0.55254   0.89002   1.000
    O115    O    0.76190   0.62854   0.86088   1.000
    O116    O    0.69868   0.58688   0.90666   1.000
    C117    C    0.92674   0.71879   0.59254   1.000
    O118    O    0.90882   0.70638   0.58614   1.000
    O119    O    0.90290   0.78518   0.56163   1.000
    O120    O    0.83967   0.74353   0.60741   1.000
    O121    O    0.99994   0.72024   0.60780   1.000
    O122    O    0.99169   0.67123   0.57866   1.000
    C123    C    0.22542   0.10720   0.34336   1.000
    O124    O    0.19453   0.10712   0.34270   1.000
    O125    O    0.26191   0.12852   0.36087   1.000
    O126    O    0.19868   0.08686   0.40666   1.000
    O127    O    0.27017   0.05253   0.39003   1.000
    O128    O    0.20890   0.15751   0.27941   1.000
    O129    O    0.26387   0.15015   0.32947   1.000
    C130    C    0.96093   0.88853   0.15855   1.000
    O131    O    0.92963   0.89002   0.15858   1.000
    O132    O    0.00261   0.94395   0.11149   1.000
    O133    O    0.94909   0.90962   0.09485   1.000
    O134    O    0.01087   0.86797   0.14063   1.000
    O135    O    0.93841   0.83928   0.22209   1.000
    O136    O    0.00844   0.84664   0.17201   1.000
    C137    C    0.46093   0.38852   0.65854   1.000
    O138    O    0.42963   0.39001   0.65857   1.000
    O139    O    0.43842   0.33927   0.72208   1.000
    O140    O    0.50844   0.34663   0.67200   1.000
    O141    O    0.50261   0.44395   0.61148   1.000
    O142    O    0.44910   0.40961   0.59484   1.000
    O143    O    0.51087   0.36796   0.64062   1.000
    C144    C    0.53906   0.11150   0.34143   1.000
    O145    O    0.56157   0.16075   0.27789   1.000
    O146    O    0.49154   0.15339   0.32796   1.000
    O147    O    0.49737   0.05608   0.38850   1.000
    O148    O    0.48912   0.13207   0.35934   1.000
    O149    O    0.55089   0.09042   0.40513   1.000
    O150    O    0.57035   0.11001   0.34140   1.000
    C151    C    0.46093   0.88853   0.65854   1.000
    O152    O    0.42963   0.89002   0.65857   1.000
    O153    O    0.50844   0.84664   0.67200   1.000
    O154    O    0.43841   0.83929   0.72208   1.000
    O155    O    0.50261   0.94396   0.61148   1.000
    O156    O    0.44910   0.90962   0.59484   1.000
    O157    O    0.51087   0.86797   0.64062   1.000
    C158    C    0.07324   0.28125   0.90742   1.000
    O159    O    0.09116   0.29366   0.91381   1.000
    O160    O    0.16031   0.25651   0.89256   1.000
    O161    O    0.09708   0.21485   0.93834   1.000
    O162    O    0.00003   0.27980   0.89216   1.000
    O163    O    0.00829   0.32881   0.92131   1.000
    C164    C    0.31926   0.14703   0.55159   1.000
    O165    O    0.33719   0.15857   0.55881   1.000
    O166    O    0.34469   0.16479   0.49114   1.000
    O167    O    0.40646   0.12314   0.53693   1.000
    O168    O    0.25470   0.17798   0.58434   1.000
    O169    O    0.24645   0.12897   0.55520   1.000
    C170    C    0.31926   0.14702   0.05158   1.000
    O171    O    0.33719   0.15856   0.05878   1.000
    O172    O    0.25471   0.17797   0.08434   1.000
    O173    O    0.24645   0.12896   0.05519   1.000
    O174    O    0.34469   0.16478   0.99114   1.000
    O175    O    0.40646   0.12313   0.03693   1.000
    C176    C    0.42674   0.71879   0.59255   1.000
    O177    O    0.40882   0.70638   0.58615   1.000
    O178    O    0.40290   0.78519   0.56163   1.000
    O179    O    0.33967   0.74353   0.60741   1.000
    O180    O    0.49994   0.72024   0.60781   1.000
    O181    O    0.49169   0.67123   0.57866   1.000
    C182    C    0.81926   0.14702   0.05161   1.000
    O183    O    0.83719   0.15856   0.05883   1.000
    O184    O    0.84468   0.16478   0.99116   1.000
    O185    O    0.90646   0.12313   0.03694   1.000
    O186    O    0.75470   0.17797   0.08435   1.000
    O187    O    0.74645   0.12896   0.05521   1.000
    C188    C    0.81925   0.14703   0.55160   1.000
    O189    O    0.83718   0.15856   0.55882   1.000
    O190    O    0.84468   0.16478   0.49114   1.000
    O191    O    0.90645   0.12313   0.53693   1.000
    O192    O    0.75470   0.17798   0.58434   1.000
    O193    O    0.74644   0.12897   0.55520   1.000
    C194    C    0.92674   0.71878   0.09255   1.000
    O195    O    0.90290   0.78518   0.06163   1.000
    O196    O    0.83967   0.74353   0.10742   1.000
    O197    O    0.99995   0.72024   0.10781   1.000
    O198    O    0.99169   0.67123   0.07867   1.000
    O199    O    0.90883   0.70638   0.08616   1.000
    C200    C    0.07324   0.78126   0.40744   1.000
    O201    O    0.16031   0.75651   0.39256   1.000
    O202    O    0.09708   0.71486   0.43835   1.000
    O203    O    0.00004   0.77980   0.39218   1.000
    O204    O    0.00829   0.82882   0.42132   1.000
    O205    O    0.09116   0.79367   0.41383   1.000
    C206    C    0.42675   0.21877   0.09255   1.000
    O207    O    0.40883   0.20636   0.08615   1.000
    O208    O    0.49995   0.22023   0.10781   1.000
    O209    O    0.49169   0.17121   0.07867   1.000
    O210    O    0.40291   0.28517   0.06163   1.000
    O211    O    0.33968   0.24352   0.10742   1.000
    C212    C    0.27457   0.89284   0.65660   1.000
    O213    O    0.23611   0.84989   0.67049   1.000
    O214    O    0.29108   0.84253   0.72056   1.000
    O215    O    0.30130   0.91317   0.59331   1.000
    O216    O    0.23807   0.87152   0.63908   1.000
    O217    O    0.22982   0.94751   0.60994   1.000
    O218    O    0.30545   0.89292   0.65727   1.000
    C219    C    0.68072   0.35300   0.94813   1.000
    O220    O    0.74528   0.32205   0.91550   1.000
    O221    O    0.75353   0.37106   0.94464   1.000
    O222    O    0.66279   0.34147   0.94103   1.000
    O223    O    0.59352   0.37690   0.96274   1.000
    O224    O    0.65530   0.33524   0.00852   1.000
    C225    C    0.18073   0.35300   0.94833   1.000
    O226    O    0.16280   0.34147   0.94110   1.000
    O227    O    0.15530   0.33524   0.00880   1.000
    O228    O    0.09353   0.37690   0.96301   1.000
    O229    O    0.24528   0.32205   0.91560   1.000
    O230    O    0.25354   0.37106   0.94474   1.000
    C231    C    0.18073   0.35300   0.44838   1.000
    O232    O    0.16280   0.34146   0.44115   1.000
    O233    O    0.09353   0.37689   0.46304   1.000
    O234    O    0.15530   0.33524   0.50882   1.000
    O235    O    0.24529   0.32204   0.41562   1.000
    O236    O    0.25354   0.37106   0.44478   1.000
    C237    C    0.77457   0.89284   0.15662   1.000
    O238    O    0.72982   0.94750   0.10995   1.000
    O239    O    0.80130   0.91317   0.09331   1.000
    O240    O    0.73807   0.87152   0.13910   1.000
    O241    O    0.80545   0.89291   0.15728   1.000
    O242    O    0.79108   0.84253   0.22058   1.000
    O243    O    0.73611   0.84989   0.17050   1.000
    C244    C    0.96093   0.38851   0.15855   1.000
    O245    O    0.92963   0.39000   0.15858   1.000
    O246    O    0.00262   0.44394   0.11149   1.000
    O247    O    0.94910   0.40961   0.09485   1.000
    O248    O    0.01087   0.36795   0.14063   1.000
    O249    O    0.93842   0.33927   0.22208   1.000
    O250    O    0.00844   0.34662   0.17201   1.000
    C251    C    0.46093   0.88853   0.15855   1.000
    O252    O    0.42963   0.89002   0.15858   1.000
    O253    O    0.50262   0.94395   0.11149   1.000
    O254    O    0.44910   0.90962   0.09485   1.000
    O255    O    0.51087   0.86797   0.14063   1.000
    O256    O    0.50844   0.84664   0.17201   1.000
    O257    O    0.43842   0.83928   0.22208   1.000
    C258    C    0.03906   0.61152   0.34143   1.000
    O259    O    0.06157   0.66077   0.27789   1.000
    O260    O    0.99154   0.65341   0.32797   1.000
    O261    O    0.07035   0.61003   0.34140   1.000
    O262    O    0.05089   0.59043   0.40513   1.000
    O263    O    0.99737   0.55609   0.38850   1.000
    O264    O    0.98911   0.63208   0.35935   1.000
    C265    C    0.07324   0.78127   0.90738   1.000
    O266    O    0.09115   0.79368   0.91378   1.000
    O267    O    0.00003   0.77981   0.89213   1.000
    O268    O    0.00829   0.82883   0.92127   1.000
    O269    O    0.16030   0.75652   0.89254   1.000
    O270    O    0.09708   0.71487   0.93832   1.000
    C271    C    0.31926   0.64703   0.05154   1.000
    O272    O    0.25470   0.67799   0.08432   1.000
    O273    O    0.24645   0.62897   0.05518   1.000
    O274    O    0.33719   0.65857   0.05872   1.000
    O275    O    0.34468   0.66479   0.99113   1.000
    O276    O    0.40646   0.62314   0.03691   1.000
    C277    C    0.92674   0.21878   0.59254   1.000
    O278    O    0.99995   0.22023   0.60780   1.000
    O279    O    0.99169   0.17122   0.57866   1.000
    O280    O    0.90882   0.20637   0.58615   1.000
    O281    O    0.90290   0.28517   0.56163   1.000
    O282    O    0.83967   0.24352   0.60740   1.000
    C283    C    0.03905   0.61152   0.84130   1.000
    O284    O    0.07035   0.61003   0.84133   1.000
    O285    O    0.98911   0.63209   0.85918   1.000
    O286    O    0.05088   0.59043   0.90497   1.000
    O287    O    0.99737   0.55610   0.88833   1.000
    O288    O    0.99154   0.65341   0.82790   1.000
    O289    O    0.06156   0.66077   0.77782   1.000
    C290    C    0.53905   0.61152   0.84130   1.000
    O291    O    0.49736   0.55610   0.88833   1.000
    O292    O    0.48911   0.63209   0.85918   1.000
    O293    O    0.55088   0.59043   0.90497   1.000
    O294    O    0.57035   0.61003   0.84133   1.000
    O295    O    0.49154   0.65341   0.82790   1.000
    O296    O    0.56156   0.66077   0.77782   1.000
    C297    C    0.77457   0.39282   0.15662   1.000
    O298    O    0.72982   0.44750   0.10995   1.000
    O299    O    0.80130   0.41316   0.09331   1.000
    O300    O    0.73807   0.37150   0.13910   1.000
    O301    O    0.80546   0.39290   0.15728   1.000
    O302    O    0.79109   0.34251   0.22056   1.000
    O303    O    0.73611   0.34987   0.17050   1.000
    C304    C    0.22541   0.60721   0.34336   1.000
    O305    O    0.19453   0.60714   0.34270   1.000
    O306    O    0.26191   0.62853   0.36087   1.000
    O307    O    0.19868   0.58688   0.40666   1.000
    O308    O    0.27017   0.55254   0.39003   1.000
    O309    O    0.20890   0.65752   0.27941   1.000
    O310    O    0.26387   0.65016   0.32947   1.000
    C311    C    0.42674   0.21877   0.59253   1.000
    O312    O    0.40883   0.20636   0.58614   1.000
    O313    O    0.49995   0.22023   0.60780   1.000
    O314    O    0.49169   0.17122   0.57866   1.000
    O315    O    0.40290   0.28517   0.56162   1.000
    O316    O    0.33968   0.24352   0.60740   1.000
    C317    C    0.46093   0.38851   0.15855   1.000
    O318    O    0.43842   0.33927   0.22208   1.000
    O319    O    0.50845   0.34662   0.17201   1.000
    O320    O    0.42964   0.39000   0.15858   1.000
    O321    O    0.50262   0.44394   0.11149   1.000
    O322    O    0.44910   0.40961   0.09485   1.000
    O323    O    0.51087   0.36795   0.14063   1.000
    C324    C    0.27457   0.39282   0.15662   1.000
    O325    O    0.22982   0.44749   0.10995   1.000
    O326    O    0.30130   0.41316   0.09331   1.000
    O327    O    0.23808   0.37150   0.13910   1.000
    O328    O    0.30546   0.39290   0.15728   1.000
    O329    O    0.29109   0.34251   0.22056   1.000
    O330    O    0.23612   0.34987   0.17050   1.000
    C331    C    0.72541   0.10720   0.34336   1.000
    O332    O    0.69453   0.10712   0.34270   1.000
    O333    O    0.77017   0.05253   0.39003   1.000
    O334    O    0.76191   0.12852   0.36087   1.000
    O335    O    0.69868   0.08686   0.40666   1.000
    O336    O    0.70890   0.15751   0.27941   1.000
    O337    O    0.76387   0.15015   0.32947   1.000
    C338    C    0.72541   0.10720   0.84335   1.000
    O339    O    0.77016   0.05254   0.89002   1.000
    O340    O    0.76191   0.12852   0.86088   1.000
    O341    O    0.69868   0.08687   0.90666   1.000
    O342    O    0.70889   0.15751   0.77940   1.000
    O343    O    0.76387   0.15015   0.82947   1.000
    O344    O    0.69453   0.10713   0.84269   1.000
    C345    C    0.81925   0.64705   0.55159   1.000
    O346    O    0.83718   0.65858   0.55881   1.000
    O347    O    0.75470   0.67800   0.58434   1.000
    O348    O    0.74644   0.62898   0.55520   1.000
    O349    O    0.84468   0.66480   0.49115   1.000
    O350    O    0.90645   0.62315   0.53693   1.000
    C351    C    0.68072   0.85301   0.94837   1.000
    O352    O    0.66279   0.84148   0.94115   1.000
    O353    O    0.74528   0.82206   0.91563   1.000
    O354    O    0.75353   0.87108   0.94477   1.000
    O355    O    0.59352   0.87691   0.96304   1.000
    O356    O    0.65529   0.83526   0.00882   1.000
    C357    C    0.31925   0.64705   0.55159   1.000
    O358    O    0.34468   0.66480   0.49114   1.000
    O359    O    0.40645   0.62315   0.53693   1.000
    O360    O    0.25470   0.67800   0.58434   1.000
    O361    O    0.24644   0.62898   0.55520   1.000
    O362    O    0.33719   0.65858   0.55881   1.000
    C363    C    0.18073   0.85302   0.44837   1.000
    O364    O    0.16280   0.84148   0.44115   1.000
    O365    O    0.24528   0.82206   0.41562   1.000
    O366    O    0.25354   0.87108   0.44477   1.000
    O367    O    0.09353   0.87691   0.46304   1.000
    O368    O    0.15530   0.83526   0.50882   1.000
    C369    C    0.27457   0.89284   0.15662   1.000
    O370    O    0.30546   0.89291   0.15728   1.000
    O371    O    0.29109   0.84253   0.22056   1.000
    O372    O    0.23611   0.84989   0.17050   1.000
    O373    O    0.22982   0.94750   0.10995   1.000
    O374    O    0.30130   0.91317   0.09331   1.000
    O375    O    0.23807   0.87152   0.13910   1.000
    C376    C    0.72541   0.60721   0.34336   1.000
    O377    O    0.77016   0.55254   0.39003   1.000
    O378    O    0.76191   0.62853   0.36089   1.000
    O379    O    0.69868   0.58688   0.40666   1.000
    O380    O    0.70890   0.65752   0.27941   1.000
    O381    O    0.76387   0.65016   0.32948   1.000
    O382    O    0.69453   0.60714   0.34270   1.000
    C383    C    0.77457   0.89284   0.65660   1.000
    O384    O    0.80545   0.89292   0.65727   1.000
    O385    O    0.72981   0.94751   0.60994   1.000
    O386    O    0.80130   0.91317   0.59331   1.000
    O387    O    0.73807   0.87152   0.63908   1.000
    O388    O    0.73611   0.84989   0.67049   1.000
    O389    O    0.79108   0.84253   0.72056   1.000
    C390    C    0.96092   0.88853   0.65854   1.000
    O391    O    0.93841   0.83929   0.72208   1.000
    O392    O    0.00844   0.84664   0.67200   1.000
    O393    O    0.92963   0.89002   0.65857   1.000
    O394    O    0.00261   0.94396   0.61148   1.000
    O395    O    0.94909   0.90962   0.59484   1.000
    O396    O    0.01086   0.86797   0.64062   1.000
    C397    C    0.92675   0.21877   0.09255   1.000
    O398    O    0.99995   0.22023   0.10781   1.000
    O399    O    0.99169   0.17121   0.07867   1.000
    O400    O    0.90883   0.20636   0.08616   1.000
    O401    O    0.90290   0.28517   0.06163   1.000
    O402    O    0.83968   0.24352   0.10741   1.000
    C403    C    0.68073   0.35300   0.44837   1.000
    O404    O    0.59353   0.37689   0.46304   1.000
    O405    O    0.65530   0.33524   0.50882   1.000
    O406    O    0.74528   0.32205   0.41562   1.000
    O407    O    0.75354   0.37106   0.44477   1.000
    O408    O    0.66280   0.34147   0.44115   1.000
    C409    C    0.53905   0.11151   0.84130   1.000
    O410    O    0.57035   0.11002   0.84133   1.000
    O411    O    0.49737   0.05609   0.88833   1.000
    O412    O    0.48911   0.13207   0.85918   1.000
    O413    O    0.55088   0.09042   0.90497   1.000
    O414    O    0.49154   0.15340   0.82790   1.000
    O415    O    0.56156   0.16076   0.77782   1.000
    C416    C    0.03906   0.11151   0.34143   1.000
    O417    O    0.99737   0.05608   0.38850   1.000
    O418    O    0.98912   0.13207   0.35934   1.000
    O419    O    0.05089   0.09042   0.40513   1.000
    O420    O    0.06157   0.16075   0.27789   1.000
    O421    O    0.99154   0.15339   0.32796   1.000
    O422    O    0.07035   0.11002   0.34140   1.000
    C423    C    0.22541   0.60722   0.84335   1.000
    O424    O    0.20889   0.65752   0.77940   1.000
    O425    O    0.26387   0.65017   0.82947   1.000
    O426    O    0.26191   0.62854   0.86088   1.000
    O427    O    0.19868   0.58688   0.90666   1.000
    O428    O    0.27016   0.55254   0.89002   1.000
    O429    O    0.19453   0.60714   0.84269   1.000
    C430    C    0.57324   0.28125   0.40743   1.000
    O431    O    0.59116   0.29365   0.41383   1.000
    O432    O    0.50004   0.27979   0.39216   1.000
    O433    O    0.50829   0.32880   0.42132   1.000
    O434    O    0.66031   0.25650   0.39256   1.000
    O435    O    0.59708   0.21485   0.43835   1.000
    C436    C    0.57323   0.78127   0.90740   1.000
    O437    O    0.66030   0.75652   0.89255   1.000
    O438    O    0.59707   0.71487   0.93833   1.000
    O439    O    0.59115   0.79368   0.91380   1.000
    O440    O    0.50003   0.77981   0.89213   1.000
    O441    O    0.50829   0.82883   0.92128   1.000
    C442    C    0.07324   0.28125   0.40741   1.000
    O443    O    0.16031   0.25650   0.39254   1.000
    O444    O    0.09708   0.21485   0.43833   1.000
    O445    O    0.00004   0.27979   0.39215   1.000
    O446    O    0.00829   0.32881   0.42130   1.000
    O447    O    0.09116   0.29366   0.41379   1.000
    C448    C    0.57324   0.28125   0.90742   1.000
    O449    O    0.59115   0.29366   0.91382   1.000
    O450    O    0.66030   0.25651   0.89256   1.000
    O451    O    0.59708   0.21485   0.93834   1.000
    O452    O    0.50004   0.27980   0.89216   1.000
    O453    O    0.50829   0.32881   0.92131   1.000
    C454    C    0.03906   0.11151   0.84130   1.000
    O455    O    0.99154   0.15340   0.82790   1.000
    O456    O    0.06157   0.16076   0.77782   1.000
    O457    O    0.99737   0.05609   0.88833   1.000
    O458    O    0.98911   0.13207   0.85918   1.000
    O459    O    0.05089   0.09042   0.90497   1.000
    O460    O    0.07035   0.11002   0.84133   1.000
    C461    C    0.53905   0.61152   0.34143   1.000
    O462    O    0.49737   0.55609   0.38850   1.000
    O463    O    0.48911   0.63208   0.35934   1.000
    O464    O    0.55088   0.59043   0.40513   1.000
    O465    O    0.57035   0.61003   0.34140   1.000
    O466    O    0.49154   0.65341   0.32796   1.000
    O467    O    0.56157   0.66077   0.27789   1.000
    C468    C    0.68073   0.85301   0.44837   1.000
    O469    O    0.66279   0.84148   0.44115   1.000
    O470    O    0.74528   0.82206   0.41563   1.000
    O471    O    0.75354   0.87107   0.44477   1.000
    O472    O    0.59353   0.87691   0.46304   1.000
    O473    O    0.65530   0.83526   0.50882   1.000
    C474    C    0.18073   0.85301   0.94837   1.000
    O475    O    0.16279   0.84148   0.94115   1.000
    O476    O    0.24528   0.82206   0.91563   1.000
    O477    O    0.25353   0.87107   0.94477   1.000
    O478    O    0.09352   0.87691   0.96304   1.000
    O479    O    0.15530   0.83526   0.00882   1.000
loop_
    _geom_bond_atom_site_label_1
    _geom_bond_atom_site_label_2
    _geom_bond_distance
    _geom_bond_site_symmetry_2
    _ccdc_geom_bond_type
    C64    O65       0.39224      .   S
    C32    O65       0.78198      .   S
    C64    O66       1.14410  1_655   S
    Zr27   O66       2.48560      .   S
    C64    O67       1.14545      .   S
    Zr12   O67       2.49912      .   S
    C64    O68       0.80891  1_655   S
    Zr17   O68       2.23907      .   S
    C64    O69       1.19144      .   S
    Zr5    O69       2.55232      .   S
    C64    O70       0.85227  1_655   S
    Zr17   O70       2.18928      .   S
    C71    O72       0.38812      .   S
    C38    O72       0.77566      .   S
    C71    O73       1.00044      .   S
    Zr22   O73       2.33693      .   S
    C71    O74       1.18836      .   S
    Zr30   O74       2.55247      .   S
    C71    O75       1.07105      .   S
    Zr11   O75       2.41783  1_556   S
    C71    O76       1.18671      .   S
    Zr18   O76       2.60533      .   S
    C77    O78       1.19883      .   S
    Zr22   O78       2.58837      .   S
    C77    O79       0.98832      .   S
    Zr30   O79       2.29507      .   S
    C77    O80       1.09872  1_554   S
    Zr7    O80       2.46854      .   S
    C77    O81       1.18181      .   S
    Zr26   O81       2.60262  1_455   S
    C77    O82       0.38663      .   S
    C55    O82       0.77363      .   S
    C83    O84       0.39070      .   S
    C45    O84       0.78043      .   S
    C83    O85       1.19599      .   S
    Zr17   O85       2.57002      .   S
    C83    O86       0.86368      .   S
    Zr1    O86       2.18400      .   S
    C83    O87       0.79579      .   S
    Zr1    O87       2.26082      .   S
    C83    O88       1.14734      .   S
    Zr24   O88       2.50983  1_554   S
    C83    O89       1.13415      .   S
    Zr11   O89       2.46768  1_565   S
    C90    O91       1.18668      .   S
    Zr6    O91       2.60526      .   S
    C90    O92       1.07102      .   S
    Zr31   O92       2.41772      .   S
    C90    O93       0.38782      .   S
    C48    O93       0.77478      .   S
    C90    O94       1.00051      .   S
    Zr2    O94       2.33723      .   S
    C90    O95       1.18838      .   S
    Zr10   O95       2.55256      .   S
    C96    O97       0.39070      .   S
    C32    O97       0.78044      .   S
    C96    O98       1.14719      .   S
    Zr12   O98       2.50947      .   S
    C96    O99       0.79574      .   S
    Zr21   O99       2.26077      .   S
    C96    O100      1.13418      .   S
    Zr31   O100      2.46786      .   S
    C96    O101      0.86367      .   S
    Zr21   O101      2.18391      .   S
    C96    O102      1.19605      .   S
    Zr5    O102      2.57014      .   S
    C103   O104      1.13418      .   S
    Zr27   O104      2.46786      .   S
    C103   O105      1.14719      .   S
    Zr8    O105      2.50947      .   S
    C103   O106      0.79574      .   S
    Zr17   O106      2.26076      .   S
    C103   O107      0.39070      .   S
    C36    O107      0.78043      .   S
    C103   O108      1.19605      .   S
    Zr1    O108      2.57014      .   S
    C103   O109      0.86367      .   S
    Zr17   O109      2.18390      .   S
    C110   O111      0.39070      .   S
    C63    O111      0.78043      .   S
    C110   O112      1.19599      .   S
    Zr23   O112      2.57001      .   S
    C110   O113      0.86368      .   S
    Zr7    O113      2.18400      .   S
    C110   O114      1.13422      .   S
    Zr13   O114      2.46790      .   S
    C110   O115      0.79579      .   S
    Zr7    O115      2.26082      .   S
    C110   O116      1.14734      .   S
    Zr30   O116      2.50982  1_554   S
    C117   O118      0.38791      .   S
    C43    O118      0.77480      .   S
    C117   O119      1.07105      .   S
    Zr14   O119      2.41776      .   S
    C117   O120      1.18673      .   S
    Zr23   O120      2.60532      .   S
    C117   O121      1.00047      .   S
    Zr19   O121      2.33690  1_455   S
    C117   O122      1.18834      .   S
    Zr27   O122      2.55246  1_455   S
    C123   O124      0.39071      .   S
    C49    O124      0.78043      .   S
    C123   O125      0.79563      .   S
    Zr0    O125      2.26059      .   S
    C123   O126      1.14727      .   S
    Zr25   O126      2.50963      .   S
    C123   O127      1.13415      .   S
    Zr10   O127      2.46766  1_565   S
    C123   O128      1.19599      .   S
    Zr16   O128      2.57002      .   S
    C123   O129      0.86365      .   S
    Zr0    O129      2.18361      .   S
    C130   O131      0.39224      .   S
    C41    O131      0.78198      .   S
    C130   O132      1.14404  1_655   S
    Zr24   O132      2.48536  1_545   S
    C130   O133      1.14554      .   S
    Zr15   O133      2.49939  1_556   S
    C130   O134      0.80891  1_655   S
    Zr18   O134      2.23906      .   S
    C130   O135      1.19144      .   S
    Zr6    O135      2.55233      .   S
    C130   O136      0.85227  1_655   S
    Zr18   O136      2.18927      .   S
    C137   O138      0.39224      .   S
    C36    O138      0.78198      .   S
    C137   O139      1.19144      .   S
    Zr1    O139      2.55232      .   S
    C137   O140      0.85225      .   S
    Zr21   O140      2.18922      .   S
    C137   O141      1.14409      .   S
    Zr31   O141      2.48556      .   S
    C137   O142      1.14545      .   S
    Zr8    O142      2.49912      .   S
    C137   O143      0.80889      .   S
    Zr21   O143      2.23902      .   S
    C144   O145      1.19140      .   S
    Zr20   O145      2.55223      .   S
    C144   O146      0.85226      .   S
    Zr0    O146      2.18901      .   S
    C144   O147      1.14405      .   S
    Zr10   O147      2.48536  1_565   S
    C144   O148      0.80879      .   S
    Zr0    O148      2.23892      .   S
    C144   O149      1.14550      .   S
    Zr29   O149      2.49926      .   S
    C144   O150      0.39224      .   S
    C51    O150      0.78198      .   S
    C151   O152      0.39224      .   S
    C47    O152      0.78198      .   S
    C151   O153      0.85226      .   S
    Zr23   O153      2.18924      .   S
    C151   O154      1.19144      .   S
    Zr3    O154      2.55232      .   S
    C151   O155      1.14403      .   S
    Zr29   O155      2.48533  1_545   S
    C151   O156      1.14545      .   S
    Zr10   O156      2.49913      .   S
    C151   O157      0.80890      .   S
    Zr23   O157      2.23903      .   S
    C158   O159      0.38771      .   S
    C59    O159      0.77443      .   S
    C158   O160      1.18670      .   S
    Zr1    O160      2.60530      .   S
    C158   O161      1.07108      .   S
    Zr24   O161      2.41791  1_554   S
    C158   O162      1.00044      .   S
    Zr5    O162      2.33686  1_655   S
    C158   O163      1.18840      .   S
    Zr13   O163      2.55256  1_655   S
    C164   O165      0.38660      .   S
    C54    O165      0.77351      .   S
    C164   O166      1.09887      .   S
    Zr0    O166      2.46892      .   S
    C164   O167      1.18179      .   S
    Zr29   O167      2.60256      .   S
    C164   O168      1.19882      .   S
    Zr17   O168      2.58835      .   S
    C164   O169      0.98833      .   S
    Zr25   O169      2.29509      .   S
    C170   O171      0.38642      .   S
    C57    O171      0.77368      .   S
    C170   O172      1.19900      .   S
    Zr16   O172      2.58855      .   S
    C170   O173      0.98829      .   S
    Zr24   O173      2.29495      .   S
    C170   O174      1.09849  1_554   S
    Zr1    O174      2.46831      .   S
    C170   O175      1.18171      .   S
    Zr28   O175      2.60253      .   S
    C176   O177      0.38785      .   S
    C40    O177      0.77482      .   S
    C176   O178      1.07104      .   S
    Zr10   O178      2.41777      .   S
    C176   O179      1.18670      .   S
    Zr19   O179      2.60529      .   S
    C176   O180      1.00042      .   S
    Zr23   O180      2.33685      .   S
    C176   O181      1.18836      .   S
    Zr31   O181      2.55250      .   S
    C182   O183      0.38663      .   S
    C33    O183      0.77360      .   S
    C182   O184      1.09875  1_554   S
    Zr5    O184      2.46856      .   S
    C182   O185      1.18181      .   S
    Zr24   O185      2.60260  1_455   S
    C182   O186      1.19882      .   S
    Zr20   O186      2.58836      .   S
    C182   O187      0.98833      .   S
    Zr28   O187      2.29507      .   S
    C188   O189      0.38663      .   S
    C56    O189      0.77361      .   S
    C188   O190      1.09890      .   S
    Zr4    O190      2.46895      .   S
    C188   O191      1.18180      .   S
    Zr25   O191      2.60261  1_455   S
    C188   O192      1.19882      .   S
    Zr21   O192      2.58837      .   S
    C188   O193      0.98832      .   S
    Zr29   O193      2.29507      .   S
    C194   O195      1.07109      .   S
    Zr15   O195      2.41791  1_556   S
    C194   O196      1.18670      .   S
    Zr22   O196      2.60531      .   S
    C194   O197      1.00045      .   S
    Zr18   O197      2.33688  1_455   S
    C194   O198      1.18837      .   S
    Zr26   O198      2.55253  1_455   S
    C194   O199      0.38784      .   S
    C55    O199      0.77483      .   S
    C200   O201      1.18677      .   S
    Zr2    O201      2.60550      .   S
    C200   O202      1.07100      .   S
    Zr27   O202      2.41767      .   S
    C200   O203      1.00044      .   S
    Zr6    O203      2.33686  1_655   S
    C200   O204      1.18840      .   S
    Zr14   O204      2.55258  1_655   S
    C200   O205      0.38783      .   S
    C62    O205      0.77480      .   S
    C206   O207      0.38795      .   S
    C57    O207      0.77518      .   S
    C206   O208      1.00043      .   S
    Zr20   O208      2.33685      .   S
    C206   O209      1.18835      .   S
    Zr28   O209      2.55250      .   S
    C206   O210      1.07109      .   S
    Zr9    O210      2.41791  1_556   S
    C206   O211      1.18669      .   S
    Zr16   O211      2.60531      .   S
    C212   O213      0.86368      .   S
    Zr19   O213      2.18392      .   S
    C212   O214      1.19605      .   S
    Zr3    O214      2.57014      .   S
    C212   O215      1.14719      .   S
    Zr10   O215      2.50947      .   S
    C212   O216      0.79574      .   S
    Zr19   O216      2.26078      .   S
    C212   O217      1.13411      .   S
    Zr25   O217      2.46762  1_545   S
    C212   O218      0.39070      .   S
    C47    O218      0.78043      .   S
    C219   O220      1.19739      .   S
    Zr5    O220      2.58667      .   S
    C219   O221      0.98866      .   S
    Zr13   O221      2.29619      .   S
    C219   O222      0.38517      .   S
    C61    O222      0.77217      .   S
    C219   O223      1.18149      .   S
    Zr9    O223      2.60306      .   S
    C219   O224      1.09781  1_556   S
    Zr20   O224      2.47365      .   S
    C225   O226      0.38680      .   S
    C59    O226      0.77354      .   S
    C225   O227      1.09909  1_556   S
    Zr16   O227      2.46898      .   S
    C225   O228      1.18192      .   S
    Zr13   O228      2.60265  1_655   S
    C225   O229      1.19865      .   S
    Zr1    O229      2.58799      .   S
    C225   O230      0.98837      .   S
    Zr9    O230      2.29531      .   S
    C231   O232      0.38670      .   S
    C46    O232      0.77386      .   S
    C231   O233      1.18182      .   S
    Zr12   O233      2.60263  1_655   S
    C231   O234      1.09869      .   S
    Zr17   O234      2.46840      .   S
    C231   O235      1.19896      .   S
    Zr0    O235      2.58876      .   S
    C231   O236      0.98833      .   S
    Zr8    O236      2.29513      .   S
    C237   O238      1.13413      .   S
    Zr28   O238      2.46763  1_545   S
    C237   O239      1.14730      .   S
    Zr15   O239      2.50970  1_556   S
    C237   O240      0.79576      .   S
    Zr22   O240      2.26077      .   S
    C237   O241      0.39071      .   S
    C41    O241      0.78043      .   S
    C237   O242      1.19603      .   S
    Zr6    O242      2.57012      .   S
    C237   O243      0.86367      .   S
    Zr22   O243      2.18391      .   S
    C244   O245      0.39223      .   S
    C42    O245      0.78198      .   S
    C244   O246      1.14410  1_655   S
    Zr26   O246      2.48559      .   S
    C244   O247      1.14554      .   S
    Zr13   O247      2.49939  1_556   S
    C244   O248      0.80891  1_655   S
    Zr16   O248      2.23906      .   S
    C244   O249      1.19127      .   S
    Zr4    O249      2.55186      .   S
    C244   O250      0.85227  1_655   S
    Zr16   O250      2.18927      .   S
    C251   O252      0.39223      .   S
    C44    O252      0.78198      .   S
    C251   O253      1.14403      .   S
    Zr28   O253      2.48533  1_545   S
    C251   O254      1.14554      .   S
    Zr11   O254      2.49939  1_556   S
    C251   O255      0.80889      .   S
    Zr22   O255      2.23903      .   S
    C251   O256      0.85226      .   S
    Zr22   O256      2.18923      .   S
    C251   O257      1.19127      .   S
    Zr2    O257      2.55186      .   S
    C258   O259      1.19140      .   S
    Zr18   O259      2.55223      .   S
    C258   O260      0.85227  1_455   S
    Zr6    O260      2.18934      .   S
    C258   O261      0.39224      .   S
    C34    O261      0.78198      .   S
    C258   O262      1.14550      .   S
    Zr27   O262      2.49926      .   S
    C258   O263      1.14412  1_455   S
    Zr12   O263      2.48562      .   S
    C258   O264      0.80894  1_455   S
    Zr6    O264      2.23910      .   S
    C265   O266      0.38786      .   S
    C58    O266      0.77495      .   S
    C265   O267      1.00043      .   S
    Zr7    O267      2.33647  1_655   S
    C265   O268      1.18840      .   S
    Zr15   O268      2.55294  1_655   S
    C265   O269      1.18659      .   S
    Zr3    O269      2.60519      .   S
    C265   O270      1.07115      .   S
    Zr26   O270      2.41807  1_554   S
    C271   O272      1.19923      .   S
    Zr18   O272      2.58881      .   S
    C271   O273      0.98823      .   S
    Zr26   O273      2.29476      .   S
    C271   O274      0.38614      .   S
    C38    O274      0.77371      .   S
    C271   O275      1.09819  1_554   S
    Zr3    O275      2.46802      .   S
    C271   O276      1.18160      .   S
    Zr30   O276      2.60249      .   S
    C277   O278      1.00046      .   S
    Zr17   O278      2.33690  1_455   S
    C277   O279      1.18836      .   S
    Zr25   O279      2.55251  1_455   S
    C277   O280      0.38785      .   S
    C56    O280      0.77481      .   S
    C277   O281      1.07103      .   S
    Zr12   O281      2.41770      .   S
    C277   O282      1.18671      .   S
    Zr21   O282      2.60533      .   S
    C283   O284      0.39232      .   S
    C52    O284      0.78208      .   S
    C283   O285      0.80858  1_455   S
    Zr7    O285      2.23967      .   S
    C283   O286      1.14496      .   S
    Zr26   O286      2.50248  1_554   S
    C283   O287      1.14386  1_455   S
    Zr13   O287      2.48622      .   S
    C283   O288      0.85225  1_455   S
    Zr7    O288      2.18981      .   S
    C283   O289      1.19054      .   S
    Zr19   O289      2.55145      .   S
    C290   O291      1.14385      .   S
    Zr9    O291      2.48619      .   S
    C290   O292      0.80856      .   S
    Zr3    O292      2.23963      .   S
    C290   O293      1.14496      .   S
    Zr30   O293      2.50248  1_554   S
    C290   O294      0.39232      .   S
    C63    O294      0.78208      .   S
    C290   O295      0.85224      .   S
    Zr3    O295      2.18977      .   S
    C290   O296      1.19054      .   S
    Zr23   O296      2.55145      .   S
    C297   O298      1.13419      .   S
    Zr30   O298      2.46785      .   S
    C297   O299      1.14730      .   S
    Zr13   O299      2.50970  1_556   S
    C297   O300      0.79576      .   S
    Zr20   O300      2.26078      .   S
    C297   O301      0.39071      .   S
    C42    O301      0.78044      .   S
    C297   O302      1.19585      .   S
    Zr4    O302      2.56962      .   S
    C297   O303      0.86368      .   S
    Zr20   O303      2.18392      .   S
    C304   O305      0.39070      .   S
    C34    O305      0.78043      .   S
    C304   O306      0.79563      .   S
    Zr2    O306      2.26060      .   S
    C304   O307      1.14727      .   S
    Zr27   O307      2.50963      .   S
    C304   O308      1.13422      .   S
    Zr8    O308      2.46790      .   S
    C304   O309      1.19599      .   S
    Zr18   O309      2.57002      .   S
    C304   O310      0.86365      .   S
    Zr2    O310      2.18362      .   S
    C311   O312      0.38786      .   S
    C54    O312      0.77475      .   S
    C311   O313      1.00047      .   S
    Zr21   O313      2.33692      .   S
    C311   O314      1.18829      .   S
    Zr29   O314      2.55242      .   S
    C311   O315      1.07104      .   S
    Zr8    O315      2.41770      .   S
    C311   O316      1.18671      .   S
    Zr17   O316      2.60535      .   S
    C317   O318      1.19127      .   S
    Zr0    O318      2.55187      .   S
    C317   O319      0.85225      .   S
    Zr20   O319      2.18923      .   S
    C317   O320      0.39224      .   S
    C37    O320      0.78198      .   S
    C317   O321      1.14409      .   S
    Zr30   O321      2.48555      .   S
    C317   O322      1.14554      .   S
    Zr9    O322      2.49939  1_556   S
    C317   O323      0.80889      .   S
    Zr20   O323      2.23902      .   S
    C324   O325      1.13419      .   S
    Zr26   O325      2.46785      .   S
    C324   O326      1.14730      .   S
    Zr9    O326      2.50969  1_556   S
    C324   O327      0.79576      .   S
    Zr16   O327      2.26077      .   S
    C324   O328      0.39071      .   S
    C37    O328      0.78043      .   S
    C324   O329      1.19585      .   S
    Zr0    O329      2.56961      .   S
    C324   O330      0.86367      .   S
    Zr16   O330      2.18392      .   S
    C331   O332      0.39070      .   S
    C51    O332      0.78043      .   S
    C331   O333      1.13415      .   S
    Zr14   O333      2.46767  1_565   S
    C331   O334      0.79563      .   S
    Zr4    O334      2.26060      .   S
    C331   O335      1.14727      .   S
    Zr29   O335      2.50963      .   S
    C331   O336      1.19599      .   S
    Zr20   O336      2.57002      .   S
    C331   O337      0.86365      .   S
    Zr4    O337      2.18362      .   S
    C338   O339      1.13415      .   S
    Zr15   O339      2.46768  1_565   S
    C338   O340      0.79579      .   S
    Zr5    O340      2.26082      .   S
    C338   O341      1.14734      .   S
    Zr28   O341      2.50983  1_554   S
    C338   O342      1.19599      .   S
    Zr21   O342      2.57002      .   S
    C338   O343      0.86368      .   S
    Zr5    O343      2.18399      .   S
    C338   O344      0.39070      .   S
    C53    O344      0.78043      .   S
    C345   O346      0.38660      .   S
    C43    O346      0.77350      .   S
    C345   O347      1.19882      .   S
    Zr23   O347      2.58834      .   S
    C345   O348      0.98833      .   S
    Zr31   O348      2.29509      .   S
    C345   O349      1.09865      .   S
    Zr6    O349      2.46827      .   S
    C345   O350      1.18181      .   S
    Zr27   O350      2.60261  1_455   S
    C351   O352      0.38665      .   S
    C60    O352      0.77361      .   S
    C351   O353      1.19881      .   S
    Zr7    O353      2.58834      .   S
    C351   O354      0.98833      .   S
    Zr15   O354      2.29509      .   S
    C351   O355      1.18179      .   S
    Zr11   O355      2.60255      .   S
    C351   O356      1.09875  1_556   S
    Zr22   O356      2.46856      .   S
    C357   O358      1.09887      .   S
    Zr2    O358      2.46892      .   S
    C357   O359      1.18178      .   S
    Zr31   O359      2.60255      .   S
    C357   O360      1.19883      .   S
    Zr19   O360      2.58836      .   S
    C357   O361      0.98833      .   S
    Zr27   O361      2.29509      .   S
    C357   O362      0.38662      .   S
    C40    O362      0.77362      .   S
    C363   O364      0.38665      .   S
    C62    O364      0.77363      .   S
    C363   O365      1.19895      .   S
    Zr2    O365      2.58877      .   S
    C363   O366      0.98833      .   S
    Zr10   O366      2.29510      .   S
    C363   O367      1.18182      .   S
    Zr14   O367      2.60261  1_655   S
    C363   O368      1.09874      .   S
    Zr19   O368      2.46846      .   S
    C369   O370      0.39071      .   S
    C44    O370      0.78044      .   S
    C369   O371      1.19585      .   S
    Zr2    O371      2.56961      .   S
    C369   O372      0.86367      .   S
    Zr18   O372      2.18392      .   S
    C369   O373      1.13413      .   S
    Zr24   O373      2.46763  1_545   S
    C369   O374      1.14730      .   S
    Zr11   O374      2.50970  1_556   S
    C369   O375      0.79576      .   S
    Zr18   O375      2.26077      .   S
    C376   O377      1.13422      .   S
    Zr12   O377      2.46790      .   S
    C376   O378      0.79579      .   S
    Zr6    O378      2.26081      .   S
    C376   O379      1.14727      .   S
    Zr31   O379      2.50963      .   S
    C376   O380      1.19599      .   S
    Zr22   O380      2.57002      .   S
    C376   O381      0.86368      .   S
    Zr6    O381      2.18399      .   S
    C376   O382      0.39071      .   S
    C39    O382      0.78044      .   S
    C383   O384      0.39070      .   S
    C50    O384      0.78044      .   S
    C383   O385      1.13411      .   S
    Zr29   O385      2.46762  1_545   S
    C383   O386      1.14719      .   S
    Zr14   O386      2.50947      .   S
    C383   O387      0.79574      .   S
    Zr23   O387      2.26077      .   S
    C383   O388      0.86367      .   S
    Zr23   O388      2.18391      .   S
    C383   O389      1.19605      .   S
    Zr7    O389      2.57014      .   S
    C390   O391      1.19144      .   S
    Zr7    O391      2.55232      .   S
    C390   O392      0.85227  1_655   S
    Zr19   O392      2.18927      .   S
    C390   O393      0.39224      .   S
    C50    O393      0.78199      .   S
    C390   O394      1.14404  1_655   S
    Zr25   O394      2.48536  1_545   S
    C390   O395      1.14545      .   S
    Zr14   O395      2.49912      .   S
    C390   O396      0.80891  1_655   S
    Zr19   O396      2.23906      .   S
    C397   O398      1.00047      .   S
    Zr16   O398      2.33690  1_455   S
    C397   O399      1.18836      .   S
    Zr24   O399      2.55250  1_455   S
    C397   O400      0.38785      .   S
    C33    O400      0.77480      .   S
    C397   O401      1.07108      .   S
    Zr13   O401      2.41789  1_556   S
    C397   O402      1.18671      .   S
    Zr20   O402      2.60533      .   S
    C403   O404      1.18180      .   S
    Zr8    O404      2.60256      .   S
    C403   O405      1.09872      .   S
    Zr21   O405      2.46843      .   S
    C403   O406      1.19895      .   S
    Zr4    O406      2.58877      .   S
    C403   O407      0.98834      .   S
    Zr12   O407      2.29512      .   S
    C403   O408      0.38664      .   S
    C35    O408      0.77363      .   S
    C409   O410      0.39232      .   S
    C53    O410      0.78208      .   S
    C409   O411      1.14378      .   S
    Zr11   O411      2.48595  1_565   S
    C409   O412      0.80856      .   S
    Zr1    O412      2.23962      .   S
    C409   O413      1.14496      .   S
    Zr28   O413      2.50248  1_554   S
    C409   O414      0.85224      .   S
    Zr1    O414      2.18976      .   S
    C409   O415      1.19054      .   S
    Zr21   O415      2.55145      .   S
    C416   O417      1.14406  1_455   S
    Zr14   O417      2.48539  1_565   S
    C416   O418      0.80880  1_455   S
    Zr4    O418      2.23894      .   S
    C416   O419      1.14550      .   S
    Zr25   O419      2.49926      .   S
    C416   O420      1.19140      .   S
    Zr16   O420      2.55223      .   S
    C416   O421      0.85227  1_455   S
    Zr4    O421      2.18903      .   S
    C416   O422      0.39224      .   S
    C49    O422      0.78198      .   S
    C423   O424      1.19599      .   S
    Zr19   O424      2.57002      .   S
    C423   O425      0.86368      .   S
    Zr3    O425      2.18399      .   S
    C423   O426      0.79579      .   S
    Zr3    O426      2.26082      .   S
    C423   O427      1.14734      .   S
    Zr26   O427      2.50982  1_554   S
    C423   O428      1.13421      .   S
    Zr9    O428      2.46790      .   S
    C423   O429      0.39070      .   S
    C52    O429      0.78043      .   S
    C430   O431      0.38782      .   S
    C35    O431      0.77479      .   S
    C430   O432      1.00050      .   S
    Zr0    O432      2.33724      .   S
    C430   O433      1.18839      .   S
    Zr8    O433      2.55255      .   S
    C430   O434      1.18676      .   S
    Zr4    O434      2.60548      .   S
    C430   O435      1.07102      .   S
    Zr29   O435      2.41771      .   S
    C436   O437      1.18663      .   S
    Zr7    O437      2.60523      .   S
    C436   O438      1.07112      .   S
    Zr30   O438      2.41803  1_554   S
    C436   O439      0.38797      .   S
    C60    O439      0.77492      .   S
    C436   O440      1.00046      .   S
    Zr3    O440      2.33654      .   S
    C436   O441      1.18831      .   S
    Zr11   O441      2.55283      .   S
    C442   O443      1.18671      .   S
    Zr0    O443      2.60543      .   S
    C442   O444      1.07107      .   S
    Zr25   O444      2.41782      .   S
    C442   O445      1.00047      .   S
    Zr4    O445      2.33711  1_655   S
    C442   O446      1.18846      .   S
    Zr12   O446      2.55269  1_655   S
    C442   O447      0.38772      .   S
    C46    O447      0.77485      .   S
    C448   O449      0.38784      .   S
    C61    O449      0.77481      .   S
    C448   O450      1.18669      .   S
    Zr5    O450      2.60528      .   S
    C448   O451      1.07108      .   S
    Zr28   O451      2.41792  1_554   S
    C448   O452      1.00041      .   S
    Zr1    O452      2.33683      .   S
    C448   O453      1.18837      .   S
    Zr9    O453      2.55254      .   S
    C454   O455      0.85225  1_455   S
    Zr5    O455      2.18981      .   S
    C454   O456      1.19054      .   S
    Zr17   O456      2.55146      .   S
    C454   O457      1.14380  1_455   S
    Zr15   O457      2.48599  1_565   S
    C454   O458      0.80858  1_455   S
    Zr5    O458      2.23967      .   S
    C454   O459      1.14496      .   S
    Zr24   O459      2.50248  1_554   S
    C454   O460      0.39232      .   S
    C45    O460      0.78208      .   S
    C461   O462      1.14411      .   S
    Zr8    O462      2.48558      .   S
    C461   O463      0.80879      .   S
    Zr2    O463      2.23891      .   S
    C461   O464      1.14550      .   S
    Zr31   O464      2.49926      .   S
    C461   O465      0.39224      .   S
    C39    O465      0.78198      .   S
    C461   O466      0.85226      .   S
    Zr2    O466      2.18899      .   S
    C461   O467      1.19140      .   S
    Zr22   O467      2.55223      .   S
    C468   O469      0.38664      .   S
    C48    O469      0.77362      .   S
    C468   O470      1.19879      .   S
    Zr6    O470      2.58827      .   S
    C468   O471      0.98834      .   S
    Zr14   O471      2.29513      .   S
    C468   O472      1.18181      .   S
    Zr10   O472      2.60257      .   S
    C468   O473      1.09872      .   S
    Zr23   O473      2.46843      .   S
    C474   O475      0.38672      .   S
    C58    O475      0.77383      .   S
    C474   O476      1.19881      .   S
    Zr3    O476      2.58834      .   S
    C474   O477      0.98833      .   S
    Zr11   O477      2.29510      .   S
    C474   O478      1.18181      .   S
    Zr15   O478      2.60261  1_655   S
    C474   O479      1.09876  1_556   S
    Zr18   O479      2.46856      .   S
