# CIF file generated by openbabel 2.4.90, see http://openbabel.sf.net
data_I
_chemical_name_common 'VESTA_phase_1'
_cell_length_a 13.59
_cell_length_b 13.596
_cell_length_c 13.604
_cell_angle_alpha 87.248
_cell_angle_beta 87.32
_cell_angle_gamma 87.467
_space_group_name_H-M_alt 'P 1'
_space_group_name_Hall 'P 1'
loop_
    _symmetry_equiv_pos_as_xyz
    x,y,z
loop_
    _atom_site_label
    _atom_site_type_symbol
    _atom_site_fract_x
    _atom_site_fract_y
    _atom_site_fract_z
    _atom_site_occupancy
    Cu0     Cu   0.01836   0.58481   0.01976   1.000
    Cu1     Cu   0.02120   0.02109   0.58377   1.000
    Cu2     Cu   0.58387   0.02156   0.01927   1.000
    Cu3     Cu   0.41619   0.98191   0.98036   1.000
    Cu4     Cu   0.98182   0.98187   0.41636   1.000
    Cu5     Cu   0.97862   0.41719   0.98070   1.000
    H6      H    0.99835   0.43573   0.66500   1.000
    H7      H    0.66696   0.00000   0.43472   1.000
    H8      H    0.43294   0.66670   0.00000   1.000
    H9      H    0.56739   0.00158   0.33475   1.000
    H10     H    0.00110   0.33630   0.56570   1.000
    H11     H    0.33305   0.56660   0.00071   1.000
    H12     H    0.99823   0.56756   0.33516   1.000
    H13     H    0.33642   0.00144   0.56545   1.000
    H14     H    0.56433   0.33679   0.99963   1.000
    H15     H    0.43540   0.00000   0.66476   1.000
    H16     H    0.00000   0.66670   0.43445   1.000
    H17     H    0.66342   0.43605   0.00000   1.000
    H18     H    0.01643   0.73755   0.73655   1.000
    H19     H    0.73750   0.01576   0.73694   1.000
    H20     H    0.73545   0.73806   0.01589   1.000
    H21     H    0.26494   0.98769   0.26343   1.000
    H22     H    0.98340   0.26539   0.26399   1.000
    H23     H    0.26231   0.26424   0.98370   1.000
    C24     C    0.00645   0.55148   0.81692   1.000
    C25     C    0.00230   0.51228   0.63890   1.000
    C26     C    0.00758   0.58275   0.70996   1.000
    C27     C    0.81834   0.00729   0.55105   1.000
    C28     C    0.64043   0.00343   0.51120   1.000
    C29     C    0.71130   0.00800   0.58203   1.000
    C30     C    0.54956   0.81840   0.00802   1.000
    C31     C    0.50951   0.64041   0.00363   1.000
    C32     C    0.58038   0.71143   0.00850   1.000
    C33     C    0.45076   0.99532   0.18316   1.000
    C34     C    0.49075   0.99883   0.36107   1.000
    C35     C    0.41997   0.99463   0.29011   1.000
    C36     C    0.99317   0.18480   0.44968   1.000
    C37     C    0.99726   0.36275   0.48925   1.000
    C38     C    0.99202   0.29182   0.41870   1.000
    C39     C    0.18156   0.44992   0.99306   1.000
    C40     C    0.35952   0.49014   0.99720   1.000
    C41     C    0.28862   0.41920   0.99216   1.000
    C42     C    0.99117   0.45136   0.18364   1.000
    C43     C    0.99581   0.49089   0.36149   1.000
    C44     C    0.99085   0.42030   0.29056   1.000
    C45     C    0.18473   0.99534   0.44948   1.000
    C46     C    0.36277   0.99879   0.48890   1.000
    C47     C    0.29167   0.99461   0.41830   1.000
    C48     C    0.44878   0.18475   0.99214   1.000
    C49     C    0.48769   0.36283   0.99671   1.000
    C50     C    0.41723   0.29152   0.99165   1.000
    C51     C    0.55104   0.00786   0.81670   1.000
    C52     C    0.51210   0.00372   0.63867   1.000
    C53     C    0.58256   0.00827   0.70988   1.000
    C54     C    0.00899   0.81818   0.55044   1.000
    C55     C    0.00403   0.64029   0.51105   1.000
    C56     C    0.00905   0.71119   0.58166   1.000
    C57     C    0.81534   0.55190   0.00730   1.000
    C58     C    0.63721   0.51259   0.00323   1.000
    C59     C    0.70844   0.58317   0.00807   1.000
    C60     C    0.00178   0.53927   0.53790   1.000
    C61     C    0.01211   0.68266   0.68150   1.000
    C62     C    0.53927   0.00261   0.53775   1.000
    C63     C    0.68263   0.01172   0.68181   1.000
    C64     C    0.53619   0.53942   0.00211   1.000
    C65     C    0.68030   0.68306   0.01187   1.000
    C66     C    0.46385   0.99972   0.46200   1.000
    C67     C    0.31998   0.99132   0.31844   1.000
    C68     C    0.99789   0.46386   0.46243   1.000
    C69     C    0.98765   0.32032   0.31892   1.000
    C70     C    0.46064   0.46372   0.99833   1.000
    C71     C    0.31721   0.31944   0.98805   1.000
    O72     O    0.02450   0.61736   0.87680   1.000
    O73     O    0.98687   0.46195   0.84011   1.000
    O74     O    0.87834   0.02541   0.61688   1.000
    O75     O    0.84145   0.98791   0.46163   1.000
    O76     O    0.61622   0.87847   0.02391   1.000
    O77     O    0.45948   0.84138   0.99084   1.000
    O78     O    0.38399   0.97914   0.12348   1.000
    O79     O    0.54079   0.01273   0.15983   1.000
    O80     O    0.97523   0.12488   0.38375   1.000
    O81     O    0.01281   0.16168   0.53909   1.000
    O82     O    0.12148   0.38389   0.97522   1.000
    O83     O    0.15856   0.53939   0.01246   1.000
    O84     O    0.97477   0.38485   0.12380   1.000
    O85     O    0.00874   0.54137   0.16047   1.000
    O86     O    0.12460   0.97919   0.38313   1.000
    O87     O    0.16186   0.01272   0.53943   1.000
    O88     O    0.38300   0.12448   0.97415   1.000
    O89     O    0.53838   0.16208   0.01146   1.000
    O90     O    0.61687   0.02630   0.87660   1.000
    O91     O    0.46148   0.98838   0.83980   1.000
    O92     O    0.02530   0.87824   0.61675   1.000
    O93     O    0.99171   0.84123   0.46044   1.000
    O94     O    0.87564   0.61815   0.02370   1.000
    O95     O    0.83804   0.46198   0.98952   1.000
loop_
    _geom_bond_atom_site_label_1
    _geom_bond_atom_site_label_2
    _geom_bond_distance
    _geom_bond_site_symmetry_2
    _ccdc_geom_bond_type
    H17    C58       1.08718      .   S
    H8     C31       1.08782      .   S
    H11    C40       1.08735  1_554   S
    C64    C58       1.40539      .   S
    C64    C31       1.40550      .   S
    C64    C70       1.48979  1_554   S
    C58    C59       1.39870      .   S
    C31    C32       1.39944      .   S
    C57    C59       1.49522      .   S
    C57    O94       1.27834      .   S
    C57    O95       1.27921  1_554   S
    C30    C32       1.49542      .   S
    C30    O76       1.27876      .   S
    C30    O77       1.27933  1_554   S
    C59    C65       1.39730      .   S
    C32    C65       1.39735      .   S
    O89    Cu2       1.98143      .   S
    O89    C48       1.27892  1_554   S
    C65    H20       1.08684      .   S
    O83    Cu0       1.97631      .   S
    O83    C39       1.27921  1_554   S
    Cu2    O76       1.97415  1_545   S
    Cu2    O79       1.97310      .   S
    Cu2    O90       1.97015  1_554   S
    Cu0    O94       1.97102  1_455   S
    Cu0    O85       1.97611      .   S
    Cu0    O72       1.97246  1_554   S
    O78    C33       1.27857      .   S
    O78    Cu3       1.97446  1_554   S
    O84    C42       1.27893      .   S
    O84    Cu5       1.97388  1_554   S
    O79    C33       1.27894  1_545   S
    O85    C42       1.27889  1_455   S
    C33    C35       1.49473      .   S
    C42    C44       1.49488      .   S
    H21    C67       1.08677      .   S
    H22    C69       1.08674      .   S
    C35    C67       1.39701      .   S
    C35    C34       1.39913      .   S
    C44    C69       1.39701      .   S
    C44    C43       1.39917      .   S
    C67    C47       1.39678      .   S
    C69    C38       1.39688      .   S
    H9     C34       1.08709  1_545   S
    H12    C43       1.08714      .   S
    C34    C66       1.40474      .   S
    C43    C68       1.40563      .   S
    O86    Cu4       1.97079  1_455   S
    O86    C45       1.27856      .   S
    O80    Cu4       1.97250  1_545   S
    O80    C36       1.27895      .   S
    Cu4    O93       1.97712      .   S
    Cu4    O75       1.97637      .   S
    C47    C45       1.49451      .   S
    C47    C46       1.39862      .   S
    C38    C36       1.49493      .   S
    C38    C37       1.39909      .   S
    H16    C55       1.08884      .   S
    H7     C28       1.08757      .   S
    C45    O87       1.27887  1_565   S
    C36    O81       1.27893  1_655   S
    O93    C54       1.27906  1_655   S
    O75    C27       1.27890  1_565   S
    C66    C46       1.40549      .   S
    C66    C62       1.49005  1_565   S
    C68    C37       1.40557      .   S
    C68    C60       1.48964  1_655   S
    C46    H13       1.08700  1_565   S
    C37    H10       1.08681  1_655   S
    C55    C60       1.40542      .   S
    C55    C56       1.39912      .   S
    C28    C62       1.40527      .   S
    C28    C29       1.39919      .   S
    C62    C52       1.40555      .   S
    C60    C25       1.40529      .   S
    O81    Cu1       1.97784      .   S
    O87    Cu1       1.97743      .   S
    C54    C56       1.49561      .   S
    C54    O92       1.27871      .   S
    C27    C29       1.49525      .   S
    C27    O74       1.27860      .   S
    C56    C61       1.39650      .   S
    C29    C63       1.39723      .   S
    Cu1    O92       1.97122  1_545   S
    Cu1    O74       1.97137  1_455   S
    C52    H15       1.08788      .   S
    C52    C53       1.39884      .   S
    C25    H6        1.08623  1_455   S
    C25    C26       1.39964      .   S
    C61    C26       1.39779      .   S
    C61    H18       1.08757      .   S
    C63    C53       1.39754      .   S
    C63    H19       1.08688      .   S
    C53    C51       1.49546      .   S
    C26    C24       1.49578      .   S
    C51    O91       1.27875  1_545   S
    C51    O90       1.27866      .   S
    C24    O73       1.27897  1_455   S
    C24    O72       1.27836      .   S
    O91    Cu3       1.98029      .   S
    O73    Cu5       1.97866      .   S
    O88    Cu3       1.96938  1_545   S
    O88    C48       1.27861      .   S
    O82    Cu5       1.97284  1_455   S
    O82    C39       1.27895      .   S
    Cu3    O77       1.97469      .   S
    Cu5    O95       1.97934      .   S
    H23    C71       1.08689      .   S
    C71    C50       1.39746      .   S
    C71    C41       1.39732      .   S
    C50    C48       1.49517      .   S
    C50    C49       1.39872      .   S
    C41    C39       1.49549      .   S
    C41    C40       1.39937      .   S
    C49    C70       1.40534      .   S
    C49    H14       1.08696      .   S
    C40    C70       1.40549      .   S
    Cu0    Cu5       2.45342  1_454   S
    Cu1    Cu4       2.45220  1_445   S
    Cu2    Cu3       2.45204  1_544   S
