# CIF file generated by openbabel 2.4.90, see http://openbabel.sf.net
data_I
_chemical_name_common ''
_cell_length_a 23.068
_cell_length_b 16.552
_cell_length_c 16.552
_cell_angle_alpha 90.011
_cell_angle_beta 89.999
_cell_angle_gamma 90.002
_space_group_name_H-M_alt 'P 1'
_space_group_name_Hall 'P 1'
loop_
    _symmetry_equiv_pos_as_xyz
    x,y,z
loop_
    _atom_site_label
    _atom_site_type_symbol
    _atom_site_fract_x
    _atom_site_fract_y
    _atom_site_fract_z
    _atom_site_occupancy
    H0      H    0.09299   0.15554   0.24534   1.000
    H1      H    0.59299   0.15554   0.24534   1.000
    H2      H    0.09294   0.84443   0.75467   1.000
    H3      H    0.59294   0.84443   0.75467   1.000
    H4      H    0.09295   0.75448   0.15554   1.000
    H5      H    0.59295   0.75448   0.15554   1.000
    H6      H    0.09298   0.24555   0.84447   1.000
    H7      H    0.59298   0.24555   0.84447   1.000
    H8      H    0.15702   0.34449   0.74545   1.000
    H9      H    0.65702   0.34449   0.74545   1.000
    H10     H    0.15704   0.65553   0.25455   1.000
    H11     H    0.65704   0.65553   0.25455   1.000
    H12     H    0.15703   0.74544   0.65556   1.000
    H13     H    0.65703   0.74544   0.65556   1.000
    H14     H    0.15704   0.25457   0.34442   1.000
    H15     H    0.65704   0.25457   0.34442   1.000
    H16     H    0.40701   0.84447   0.75465   1.000
    H17     H    0.90701   0.84447   0.75465   1.000
    H18     H    0.40706   0.15558   0.24532   1.000
    H19     H    0.90706   0.15558   0.24532   1.000
    H20     H    0.40705   0.24553   0.84445   1.000
    H21     H    0.90705   0.24553   0.84445   1.000
    H22     H    0.40702   0.75446   0.15550   1.000
    H23     H    0.90702   0.75446   0.15552   1.000
    H24     H    0.34297   0.65552   0.25454   1.000
    H25     H    0.84298   0.65552   0.25454   1.000
    H26     H    0.34296   0.34448   0.74545   1.000
    H27     H    0.84296   0.34448   0.74545   1.000
    H28     H    0.34297   0.25458   0.34443   1.000
    H29     H    0.84297   0.25458   0.34443   1.000
    H30     H    0.34296   0.74544   0.65556   1.000
    H31     H    0.84296   0.74544   0.65550   1.000
    H32     H    0.00000   0.94041   0.17551   1.000
    H33     H    0.50000   0.94041   0.17551   1.000
    H34     H    1.00000   0.05959   0.82448   1.000
    H35     H    0.50000   0.05959   0.82448   1.000
    H36     H    1.00000   0.82437   0.94042   1.000
    H37     H    0.50000   0.82437   0.94042   1.000
    H38     H    0.00000   0.17564   0.05957   1.000
    H39     H    0.50000   0.17564   0.05957   1.000
    H40     H    0.25000   0.55963   0.67567   1.000
    H41     H    0.75000   0.55963   0.67567   1.000
    H42     H    0.25000   0.44039   0.32432   1.000
    H43     H    0.75000   0.44039   0.32432   1.000
    H44     H    0.25000   0.67549   0.44040   1.000
    H45     H    0.75000   0.67549   0.44040   1.000
    H46     H    0.25000   0.32455   0.55950   1.000
    H47     H    0.75000   0.32455   0.55950   1.000
    C48     C    0.05247   0.12360   0.23470   1.000
    C49     C    0.55247   0.12360   0.23470   1.000
    C50     C    0.05263   0.04340   0.20776   1.000
    C51     C    0.55263   0.04340   0.20776   1.000
    C52     C    0.49997   0.83641   0.75102   1.000
    C53     C    0.99999   0.99700   0.80439   1.000
    C54     C    0.49999   0.99700   0.80439   1.000
    C55     C    0.05243   0.87638   0.76528   1.000
    C56     C    0.55243   0.87638   0.76528   1.000
    C57     C    0.05261   0.95659   0.79224   1.000
    C58     C    0.55261   0.95659   0.79224   1.000
    C59     C    0.05245   0.76509   0.12359   1.000
    C60     C    0.55245   0.76509   0.12359   1.000
    C61     C    0.05262   0.79209   0.04341   1.000
    C62     C    0.55262   0.79209   0.04341   1.000
    C63     C    0.05247   0.23492   0.87640   1.000
    C64     C    0.55247   0.23492   0.87640   1.000
    C65     C    0.05263   0.20792   0.95659   1.000
    C66     C    0.55263   0.20792   0.95659   1.000
    C67     C    0.19754   0.37643   0.73485   1.000
    C68     C    0.69754   0.37643   0.73485   1.000
    C69     C    0.19737   0.45663   0.70789   1.000
    C70     C    0.69737   0.45663   0.70789   1.000
    C71     C    0.19755   0.62358   0.26514   1.000
    C72     C    0.69755   0.62358   0.26514   1.000
    C73     C    0.19738   0.54339   0.29210   1.000
    C74     C    0.69738   0.54339   0.29210   1.000
    C75     C    0.19754   0.73481   0.62362   1.000
    C76     C    0.69754   0.73481   0.62362   1.000
    C77     C    0.19737   0.70780   0.54343   1.000
    C78     C    0.69737   0.70780   0.54343   1.000
    C79     C    0.19755   0.26521   0.37637   1.000
    C80     C    0.69755   0.26521   0.37637   1.000
    C81     C    0.19738   0.29222   0.45655   1.000
    C82     C    0.69738   0.29222   0.45655   1.000
    C83     C    0.44752   0.87640   0.76527   1.000
    C84     C    0.94752   0.87640   0.76527   1.000
    C85     C    0.44737   0.95660   0.79223   1.000
    C86     C    0.94737   0.95660   0.79223   1.000
    C87     C    0.44756   0.12362   0.23472   1.000
    C88     C    0.94757   0.12362   0.23472   1.000
    C89     C    0.44739   0.04342   0.20775   1.000
    C90     C    0.94739   0.04342   0.20775   1.000
    C91     C    0.44755   0.23491   0.87640   1.000
    C92     C    0.94755   0.23491   0.87640   1.000
    C93     C    0.44738   0.20792   0.95658   1.000
    C94     C    0.94738   0.20792   0.95658   1.000
    C95     C    0.44753   0.76509   0.12350   1.000
    C96     C    0.94753   0.76509   0.12350   1.000
    C97     C    0.44737   0.79208   0.04340   1.000
    C98     C    0.94737   0.79208   0.04340   1.000
    C99     C    0.30246   0.62358   0.26514   1.000
    C100    C    0.80246   0.62358   0.26514   1.000
    C101    C    0.30263   0.54339   0.29210   1.000
    C102    C    0.80263   0.54339   0.29210   1.000
    C103    C    0.30245   0.37643   0.73485   1.000
    C104    C    0.80245   0.37643   0.73485   1.000
    C105    C    0.30262   0.45662   0.70789   1.000
    C106    C    0.80262   0.45662   0.70789   1.000
    C107    C    0.30246   0.26521   0.37637   1.000
    C108    C    0.80246   0.26521   0.37637   1.000
    C109    C    0.30262   0.29222   0.45655   1.000
    C110    C    0.80263   0.29222   0.45655   1.000
    C111    C    0.30245   0.73481   0.62362   1.000
    C112    C    0.80245   0.73481   0.62362   1.000
    C113    C    0.30262   0.70780   0.54343   1.000
    C114    C    0.80262   0.70780   0.54343   1.000
    C115    C    0.00002   0.16360   0.24897   1.000
    C116    C    0.50002   0.16360   0.24897   1.000
    C117    C    0.00001   0.00300   0.19560   1.000
    C118    C    0.50001   0.00300   0.19560   1.000
    C119    C    0.99997   0.83641   0.75102   1.000
    C120    C    0.99999   0.75085   0.16357   1.000
    C121    C    0.49999   0.75085   0.16357   1.000
    C122    C    0.99999   0.80423   0.00300   1.000
    C123    C    0.50000   0.80423   0.00300   1.000
    C124    C    0.00001   0.24916   0.83642   1.000
    C125    C    0.50001   0.24916   0.83642   1.000
    C126    C    0.00000   0.19577   0.99698   1.000
    C127    C    0.50001   0.19577   0.99698   1.000
    C128    C    0.24999   0.33644   0.74900   1.000
    C129    C    0.74999   0.33644   0.74900   1.000
    C130    C    0.25000   0.49703   0.69576   1.000
    C131    C    0.75000   0.49703   0.69576   1.000
    C132    C    0.25001   0.66357   0.25090   1.000
    C133    C    0.75001   0.66357   0.25090   1.000
    C134    C    0.25000   0.50298   0.30423   1.000
    C135    C    0.75000   0.50298   0.30423   1.000
    C136    C    0.25000   0.74906   0.66360   1.000
    C137    C    0.75000   0.74906   0.66360   1.000
    C138    C    0.25000   0.69564   0.50303   1.000
    C139    C    0.75000   0.69563   0.50303   1.000
    C140    C    0.25001   0.25096   0.33639   1.000
    C141    C    0.75001   0.25096   0.33639   1.000
    C142    C    0.25000   0.30440   0.49695   1.000
    C143    C    0.75000   0.30439   0.49695   1.000
loop_
    _geom_bond_atom_site_label_1
    _geom_bond_atom_site_label_2
    _geom_bond_distance
    _geom_bond_site_symmetry_2
    _ccdc_geom_bond_type
    C123   C97       1.40046      .   S
    C123   C62       1.40051      .   S
    C123   H37       1.08817  1_554   S
    C122   C98       1.40044      .   S
    C122   C61       1.40049  1_655   S
    C122   H36       1.08816  1_554   S
    C97    C95       1.39916      .   S
    C98    C96       1.39916      .   S
    C62    C60       1.40041      .   S
    C61    C59       1.40041      .   S
    H38    C126      1.08832  1_554   S
    H39    C127      1.08832  1_554   S
    C96    H23       1.08865      .   S
    C96    C120      1.39988      .   S
    C95    H22       1.08847      .   S
    C95    C121      1.39992      .   S
    C60    H5        1.08800      .   S
    C60    C121      1.39926      .   S
    C59    H4        1.08798      .   S
    C59    C120      1.39928  1_455   S
    H33    C118      1.08797  1_565   S
    H32    C117      1.08799  1_565   S
    C117   C90       1.40039  1_455   S
    C117   C50       1.40044      .   S
    C118   C89       1.40043      .   S
    C118   C51       1.40043      .   S
    C90    C88       1.40046      .   S
    C89    C87       1.40046      .   S
    C51    C49       1.40029      .   S
    C50    C48       1.40030      .   S
    C48    H0        1.08803      .   S
    C48    C115      1.39927      .   S
    C49    H1        1.08804      .   S
    C49    C116      1.39928      .   S
    C87    H18       1.08795      .   S
    C87    C116      1.39921      .   S
    C88    H19       1.08795      .   S
    C88    C115      1.39917  1_655   S
    C133   C100      1.39924      .   S
    C133   C72       1.39925      .   S
    C132   C99       1.39924      .   S
    C132   C71       1.39923      .   S
    H24    C99       1.08797      .   S
    H25    C100      1.08797      .   S
    H10    C71       1.08799      .   S
    H11    C72       1.08796      .   S
    C100   C102      1.40046      .   S
    C99    C101      1.40044      .   S
    C71    C73       1.40044      .   S
    C72    C74       1.40044      .   S
    C74    C135      1.40044      .   S
    C102   C135      1.40044      .   S
    C73    C134      1.40045      .   S
    C101   C134      1.40044      .   S
    C135   H43       1.08817      .   S
    C134   H42       1.08819      .   S
    C140   C107      1.39918      .   S
    C140   C79       1.39922      .   S
    C141   C80       1.39920      .   S
    C141   C108      1.39920      .   S
    H14    C79       1.08802      .   S
    H15    C80       1.08802      .   S
    H28    C107      1.08796      .   S
    H29    C108      1.08796      .   S
    C80    C82       1.40036      .   S
    C108   C110      1.40034      .   S
    C107   C109      1.40034      .   S
    C79    C81       1.40036      .   S
    H45    C139      1.08891      .   S
    H44    C138      1.08890      .   S
    C81    C142      1.40044      .   S
    C109   C142      1.40045      .   S
    C110   C143      1.40045      .   S
    C82    C143      1.40044      .   S
    C143   H47       1.08768      .   S
    C142   H46       1.08768      .   S
    C139   C114      1.40045      .   S
    C139   C78       1.40044      .   S
    C138   C113      1.40043      .   S
    C138   C77       1.40044      .   S
    C113   C111      1.40048      .   S
    C114   C112      1.40049      .   S
    C78    C76       1.40048      .   S
    C77    C75       1.40049      .   S
    C75    H12       1.08794      .   S
    C75    C136      1.39921      .   S
    C112   H31       1.08743      .   S
    C112   C137      1.39920      .   S
    C111   H30       1.08791      .   S
    C111   C136      1.39920      .   S
    C76    H13       1.08796      .   S
    C76    C137      1.39919      .   S
    H41    C131      1.08817      .   S
    H40    C130      1.08817      .   S
    C131   C106      1.40046      .   S
    C131   C70       1.40044      .   S
    C130   C69       1.40046      .   S
    C130   C105      1.40044      .   S
    C69    C67       1.40046      .   S
    C105   C103      1.40044      .   S
    C106   C104      1.40044      .   S
    C70    C68       1.40048      .   S
    C67    H8        1.08797      .   S
    C67    C128      1.39901      .   S
    C104   H27       1.08798      .   S
    C104   C129      1.39900      .   S
    C103   H26       1.08798      .   S
    C103   C128      1.39898      .   S
    C68    H9        1.08797      .   S
    C68    C129      1.39898      .   S
    C52    C83       1.39923      .   S
    C52    C56       1.39923      .   S
    C119   C84       1.39919      .   S
    C119   C55       1.39923  1_655   S
    H17    C84       1.08799      .   S
    H16    C83       1.08797      .   S
    H2     C55       1.08799      .   S
    H3     C56       1.08798      .   S
    C83    C85       1.40041      .   S
    C84    C86       1.40041      .   S
    C56    C58       1.40042      .   S
    C55    C57       1.40041      .   S
    C85    C54       1.40043      .   S
    C86    C53       1.40039      .   S
    C57    C53       1.40044  1_455   S
    C58    C54       1.40043      .   S
    C54    H35       1.08797  1_565   S
    C53    H34       1.08797  1_565   S
    C124   C92       1.39924  1_455   S
    C124   C63       1.39920      .   S
    C125   C91       1.39926      .   S
    C125   C64       1.39922      .   S
    H20    C91       1.08800      .   S
    H21    C92       1.08800      .   S
    H7     C64       1.08793      .   S
    H6     C63       1.08793      .   S
    C92    C94       1.40040      .   S
    C91    C93       1.40040      .   S
    C63    C65       1.40057      .   S
    C64    C66       1.40058      .   S
    C93    C127      1.40043      .   S
    C94    C126      1.40039  1_655   S
    C66    C127      1.40040      .   S
    C65    C126      1.40041      .   S
