# CIF file generated by openbabel 2.4.90, see http://openbabel.sf.net
data_I
_chemical_name_common ''
_cell_length_a 23.068
_cell_length_b 16.552
_cell_length_c 16.552
_cell_angle_alpha 90.011
_cell_angle_beta 89.999
_cell_angle_gamma 90.002
_space_group_name_H-M_alt 'P 1'
_space_group_name_Hall 'P 1'
loop_
    _symmetry_equiv_pos_as_xyz
    x,y,z
loop_
    _atom_site_label
    _atom_site_type_symbol
    _atom_site_fract_x
    _atom_site_fract_y
    _atom_site_fract_z
    _atom_site_occupancy
    Zn0     Zn   0.56988   0.37802   0.35726   1.000
    Zn1     Zn   0.06987   0.62199   0.64270   1.000
    Zn2     Zn   0.56987   0.62199   0.64270   1.000
    Zn3     Zn   0.06987   0.64273   0.37802   1.000
    Zn4     Zn   0.56988   0.64273   0.37802   1.000
    Zn5     Zn   0.06988   0.35728   0.62196   1.000
    Zn6     Zn   0.56988   0.35728   0.62196   1.000
    Zn7     Zn   0.18013   0.12199   0.85725   1.000
    Zn8     Zn   0.68012   0.12199   0.85725   1.000
    Zn9     Zn   0.18013   0.87801   0.14274   1.000
    Zn10    Zn   0.68013   0.87801   0.14274   1.000
    Zn11    Zn   0.18012   0.85728   0.87804   1.000
    Zn12    Zn   0.68012   0.85728   0.87804   1.000
    Zn13    Zn   0.18012   0.14272   0.12196   1.000
    Zn14    Zn   0.68012   0.14272   0.12196   1.000
    Zn15    Zn   0.43012   0.62199   0.64273   1.000
    Zn16    Zn   0.93012   0.62199   0.64273   1.000
    Zn17    Zn   0.43012   0.37802   0.35720   1.000
    Zn18    Zn   0.93013   0.37802   0.35720   1.000
    Zn19    Zn   0.43012   0.35728   0.62197   1.000
    Zn20    Zn   0.93013   0.35728   0.62197   1.000
    Zn21    Zn   0.43012   0.64273   0.37803   1.000
    Zn22    Zn   0.93012   0.64273   0.37803   1.000
    Zn23    Zn   0.31987   0.87802   0.14270   1.000
    Zn24    Zn   0.81988   0.87802   0.14270   1.000
    Zn25    Zn   0.31987   0.12200   0.85725   1.000
    Zn26    Zn   0.81987   0.12200   0.85725   1.000
    Zn27    Zn   0.31988   0.14272   0.12195   1.000
    Zn28    Zn   0.81988   0.14272   0.12195   1.000
    Zn29    Zn   0.31988   0.85729   0.87803   1.000
    Zn30    Zn   0.81988   0.85729   0.87803   1.000
    Zn31    Zn   0.06988   0.37802   0.35726   1.000
    H32     H    0.00000   0.48687   0.40220   1.000
    H33     H    0.50000   0.48687   0.40220   1.000
    H34     H    1.00000   0.51314   0.59774   1.000
    H35     H    0.50000   0.51314   0.59774   1.000
    H36     H    1.00000   0.59775   0.48687   1.000
    H37     H    0.50000   0.59775   0.48687   1.000
    H38     H    0.00000   0.40226   0.51310   1.000
    H39     H    0.50000   0.40226   0.51310   1.000
    H40     H    0.25000   0.01314   0.90222   1.000
    H41     H    0.75000   0.01314   0.90222   1.000
    H42     H    0.25000   0.98686   0.09777   1.000
    H43     H    0.75000   0.98686   0.09777   1.000
    H44     H    0.25000   0.90229   0.98689   1.000
    H45     H    0.75000   0.90229   0.98689   1.000
    H46     H    0.25000   0.09772   0.01310   1.000
    H47     H    0.75000   0.09772   0.01310   1.000
    C48     C    0.99996   0.75121   0.72014   1.000
    C49     C    0.10838   0.00140   0.18974   1.000
    C50     C    0.60838   0.00140   0.18974   1.000
    C51     C    0.10837   0.99858   0.81024   1.000
    C52     C    0.60837   0.99858   0.81024   1.000
    C53     C    0.10837   0.81017   0.00140   1.000
    C54     C    0.60837   0.81017   0.00140   1.000
    C55     C    0.10838   0.18985   0.99850   1.000
    C56     C    0.60838   0.18985   0.99850   1.000
    C57     C    0.14162   0.49861   0.68984   1.000
    C58     C    0.64162   0.49861   0.68984   1.000
    O59     O    0.10716   0.81622   0.92415   1.000
    O60     O    0.60716   0.81622   0.92415   1.000
    O61     O    0.04935   0.29177   0.71850   1.000
    O62     O    0.54935   0.29177   0.71850   1.000
    O63     O    0.15522   0.18047   0.95921   1.000
    C64     C    0.14163   0.50141   0.31019   1.000
    C65     C    0.64163   0.50141   0.31019   1.000
    C66     C    0.14162   0.68981   0.50140   1.000
    C67     C    0.64162   0.68981   0.50140   1.000
    C68     C    0.14162   0.31022   0.49856   1.000
    C69     C    0.64163   0.31022   0.49856   1.000
    C70     C    0.39162   0.99861   0.81025   1.000
    C71     C    0.89162   0.99861   0.81025   1.000
    C72     C    0.39163   0.00142   0.18975   1.000
    C73     C    0.89163   0.00142   0.18975   1.000
    C74     C    0.39163   0.18984   0.99856   1.000
    C75     C    0.89163   0.18984   0.99856   1.000
    C76     C    0.39162   0.81016   0.00140   1.000
    C77     C    0.89162   0.81016   0.00140   1.000
    C78     C    0.35838   0.50140   0.31014   1.000
    C79     C    0.85838   0.50140   0.31014   1.000
    C80     C    0.35837   0.49860   0.68981   1.000
    C81     C    0.85837   0.49860   0.68981   1.000
    C82     C    0.35838   0.31023   0.49856   1.000
    C83     C    0.85838   0.31023   0.49856   1.000
    C84     C    0.35837   0.68978   0.50143   1.000
    C85     C    0.85838   0.68979   0.50143   1.000
    C86     C    0.00003   0.24880   0.27985   1.000
    C87     C    0.50003   0.24880   0.27985   1.000
    C88     C    0.49997   0.75121   0.72014   1.000
    C89     C    0.99998   0.72007   0.24879   1.000
    C90     C    0.49998   0.72007   0.24879   1.000
    C91     C    0.00002   0.27994   0.75120   1.000
    C92     C    0.50002   0.27994   0.75120   1.000
    C93     C    0.24999   0.25122   0.77988   1.000
    C94     C    0.74999   0.25122   0.77988   1.000
    C95     C    0.25001   0.74879   0.22010   1.000
    C96     C    0.75001   0.74879   0.22013   1.000
    C97     C    0.25000   0.77984   0.74883   1.000
    C98     C    0.75000   0.77984   0.74883   1.000
    C99     C    0.25001   0.22016   0.25116   1.000
    C100    C    0.75001   0.22016   0.25116   1.000
    O101    O    0.04937   0.28148   0.29171   1.000
    O102    O    0.54937   0.28148   0.29171   1.000
    O103    O    0.15524   0.04074   0.18043   1.000
    O104    O    0.65524   0.04074   0.18043   1.000
    O105    O    0.10716   0.92413   0.18377   1.000
    O106    O    0.60716   0.92413   0.18377   1.000
    O107    O    0.04930   0.71851   0.70828   1.000
    O108    O    0.54930   0.71851   0.70828   1.000
    O109    O    0.15522   0.95924   0.81955   1.000
    O110    O    0.65522   0.95924   0.81955   1.000
    O111    O    0.10716   0.07585   0.81620   1.000
    O112    O    0.60716   0.07585   0.81620   1.000
    O113    O    0.04932   0.70823   0.28149   1.000
    O114    O    0.54932   0.70823   0.28149   1.000
    O115    O    0.15521   0.81952   0.04079   1.000
    O116    O    0.65521   0.81952   0.04079   1.000
    O117    O    0.65522   0.18047   0.95921   1.000
    O118    O    0.10716   0.18379   0.07580   1.000
    O119    O    0.60716   0.18379   0.07580   1.000
    O120    O    0.20065   0.21853   0.79174   1.000
    O121    O    0.70065   0.21853   0.79174   1.000
    O122    O    0.09478   0.45925   0.68040   1.000
    O123    O    0.59478   0.45925   0.68045   1.000
    O124    O    0.14284   0.57588   0.68379   1.000
    O125    O    0.64284   0.57588   0.68370   1.000
    O126    O    0.20068   0.78147   0.20824   1.000
    O127    O    0.70068   0.78147   0.20824   1.000
    O128    O    0.09478   0.54077   0.31950   1.000
    O129    O    0.59478   0.54077   0.31952   1.000
    O130    O    0.14284   0.42414   0.31619   1.000
    O131    O    0.64284   0.42414   0.31619   1.000
    O132    O    0.20066   0.79179   0.78148   1.000
    O133    O    0.70066   0.79178   0.78148   1.000
    O134    O    0.09477   0.68045   0.54078   1.000
    O135    O    0.59477   0.68045   0.54078   1.000
    O136    O    0.14284   0.68375   0.42415   1.000
    O137    O    0.64284   0.68375   0.42415   1.000
    O138    O    0.20067   0.20822   0.21850   1.000
    O139    O    0.70067   0.20822   0.21850   1.000
    O140    O    0.09477   0.31955   0.45921   1.000
    O141    O    0.59478   0.31955   0.45921   1.000
    O142    O    0.14285   0.31626   0.57583   1.000
    O143    O    0.64285   0.31626   0.57583   1.000
    O144    O    0.45062   0.71853   0.70828   1.000
    O145    O    0.95063   0.71853   0.70828   1.000
    O146    O    0.34476   0.95927   0.81956   1.000
    O147    O    0.84476   0.95927   0.81956   1.000
    O148    O    0.39284   0.07588   0.81621   1.000
    O149    O    0.89284   0.07588   0.81621   1.000
    O150    O    0.45070   0.28150   0.29171   1.000
    O151    O    0.95070   0.28150   0.29171   1.000
    O152    O    0.34478   0.04077   0.18040   1.000
    O153    O    0.84478   0.04077   0.18043   1.000
    O154    O    0.39284   0.92416   0.18375   1.000
    O155    O    0.89284   0.92416   0.18375   1.000
    O156    O    0.45068   0.29177   0.71850   1.000
    O157    O    0.95068   0.29177   0.71850   1.000
    O158    O    0.34479   0.18049   0.95920   1.000
    O159    O    0.84479   0.18049   0.95920   1.000
    O160    O    0.39284   0.18379   0.07583   1.000
    O161    O    0.89284   0.18379   0.07583   1.000
    O162    O    0.45065   0.70823   0.28149   1.000
    O163    O    0.95065   0.70823   0.28149   1.000
    O164    O    0.34478   0.81953   0.04078   1.000
    O165    O    0.84478   0.81953   0.04078   1.000
    O166    O    0.39284   0.81622   0.92410   1.000
    O167    O    0.89284   0.81622   0.92414   1.000
    O168    O    0.29935   0.78147   0.20824   1.000
    O169    O    0.79935   0.78147   0.20824   1.000
    O170    O    0.40522   0.54076   0.31954   1.000
    O171    O    0.90522   0.54076   0.31954   1.000
    O172    O    0.35716   0.42413   0.31621   1.000
    O173    O    0.85716   0.42413   0.31621   1.000
    O174    O    0.29932   0.21853   0.79174   1.000
    O175    O    0.79932   0.21853   0.79174   1.000
    O176    O    0.40522   0.45924   0.68047   1.000
    O177    O    0.90522   0.45924   0.68047   1.000
    O178    O    0.35716   0.57587   0.68379   1.000
    O179    O    0.85716   0.57587   0.68379   1.000
    O180    O    0.29935   0.20823   0.21850   1.000
    O181    O    0.79935   0.20823   0.21850   1.000
    O182    O    0.40523   0.31955   0.45920   1.000
    O183    O    0.90523   0.31955   0.45920   1.000
    O184    O    0.35716   0.31625   0.57580   1.000
    O185    O    0.85716   0.31626   0.57580   1.000
    O186    O    0.29933   0.79179   0.78148   1.000
    O187    O    0.79933   0.79179   0.78148   1.000
    O188    O    0.40522   0.68046   0.54077   1.000
    O189    O    0.90522   0.68046   0.54077   1.000
    O190    O    0.35715   0.68376   0.42415   1.000
    O191    O    0.85715   0.68376   0.42415   1.000
    O192    O    0.00000   0.42678   0.40300   1.000
    O193    O    0.50000   0.42678   0.40300   1.000
    O194    O    1.00000   0.57322   0.59699   1.000
    O195    O    0.50000   0.57322   0.59699   1.000
    O196    O    1.00000   0.59700   0.42678   1.000
    O197    O    0.50000   0.59700   0.42678   1.000
    O198    O    0.00000   0.40301   0.57321   1.000
    O199    O    0.50000   0.40301   0.57321   1.000
    O200    O    0.25000   0.07323   0.90299   1.000
    O201    O    0.75000   0.07323   0.90299   1.000
    O202    O    0.25000   0.92678   0.09000   1.000
    O203    O    0.75000   0.92678   0.09000   1.000
    O204    O    0.25000   0.90302   0.92680   1.000
    O205    O    0.75000   0.90302   0.92680   1.000
    O206    O    0.25000   0.09699   0.07319   1.000
    O207    O    0.75000   0.09699   0.07319   1.000
    Og208   Og   0.99997   0.77961   0.73043   1.000
    Og209   Og   0.08980   0.01540   0.19575   1.000
    Og210   Og   0.58980   0.01540   0.19575   1.000
    Og211   Og   0.08978   0.98458   0.80424   1.000
    Og212   Og   0.58978   0.98458   0.80424   1.000
    Og213   Og   0.08979   0.80414   0.01540   1.000
    Og214   Og   0.58979   0.80414   0.01540   1.000
    Og215   Og   0.08980   0.19587   0.98453   1.000
    Og216   Og   0.58980   0.19587   0.98453   1.000
    Og217   Og   0.16020   0.48462   0.69586   1.000
    Og218   Og   0.66020   0.48462   0.69586   1.000
    Og219   Og   0.16021   0.51540   0.30416   1.000
    Og220   Og   0.66021   0.51540   0.30416   1.000
    Og221   Og   0.16020   0.69581   0.51541   1.000
    Og222   Og   0.66020   0.69581   0.51541   1.000
    Og223   Og   0.16021   0.30422   0.48456   1.000
    Og224   Og   0.66021   0.30422   0.48456   1.000
    Og225   Og   0.41020   0.98461   0.80424   1.000
    Og226   Og   0.91020   0.98461   0.80424   1.000
    Og227   Og   0.41022   0.01542   0.19575   1.000
    Og228   Og   0.91022   0.01542   0.19575   1.000
    Og229   Og   0.41021   0.19587   0.98457   1.000
    Og230   Og   0.91021   0.19587   0.98457   1.000
    Og231   Og   0.41020   0.80413   0.01540   1.000
    Og232   Og   0.91020   0.80413   0.01540   1.000
    Og233   Og   0.33980   0.51539   0.30413   1.000
    Og234   Og   0.83980   0.51539   0.30413   1.000
    Og235   Og   0.33979   0.48461   0.69584   1.000
    Og236   Og   0.83979   0.48461   0.69584   1.000
    Og237   Og   0.33979   0.30423   0.48456   1.000
    Og238   Og   0.83980   0.30423   0.48456   1.000
    Og239   Og   0.33979   0.69579   0.51543   1.000
    Og240   Og   0.83979   0.69579   0.51543   1.000
    Og241   Og   0.00003   0.22040   0.26956   1.000
    Og242   Og   0.50003   0.22040   0.26956   1.000
    Og243   Og   0.49997   0.77961   0.73043   1.000
    Og244   Og   0.99999   0.73033   0.22038   1.000
    Og245   Og   0.49999   0.73033   0.22038   1.000
    Og246   Og   0.00002   0.26968   0.77961   1.000
    Og247   Og   0.50002   0.26968   0.77961   1.000
    Og248   Og   0.24999   0.27963   0.76959   1.000
    Og249   Og   0.74999   0.27963   0.76959   1.000
    Og250   Og   0.25001   0.72039   0.23037   1.000
    Og251   Og   0.75001   0.72039   0.23039   1.000
    Og252   Og   0.25000   0.76958   0.72042   1.000
    Og253   Og   0.75000   0.76958   0.72042   1.000
    Og254   Og   0.25001   0.23043   0.27957   1.000
    Og255   Og   0.75001   0.23043   0.27957   1.000
loop_
    _geom_bond_atom_site_label_1
    _geom_bond_atom_site_label_2
    _geom_bond_distance
    _geom_bond_site_symmetry_2
    _ccdc_geom_bond_type
    C53    O115      1.27145      .   S
    C53    O59       1.28288  1_554   S
    C54    O116      1.27145      .   S
    C54    O60       1.28288  1_554   S
    C77    O165      1.27138      .   S
    C77    O167      1.28307  1_554   S
    C76    O164      1.27138      .   S
    C76    O166      1.28373  1_554   S
    H46    O206      0.99469      .   S
    H47    O207      0.99469      .   S
    O165   Zn24      2.02793      .   S
    O164   Zn23      2.02793      .   S
    O115   Zn9       2.02843      .   S
    O116   Zn10      2.02842      .   S
    O206   Zn27      1.95513      .   S
    O207   Zn28      1.95513      .   S
    O119   Zn14      1.96947      .   S
    O119   C56       1.28373  1_554   S
    O118   Zn13      1.96948      .   S
    O118   C55       1.28372  1_554   S
    O161   Zn28      1.96916      .   S
    O161   C75       1.28321  1_554   S
    O160   Zn27      1.96916      .   S
    O160   C74       1.28321  1_554   S
    O202   H42       1.00282      .   S
    O202   Zn23      2.00267      .   S
    O203   H43       1.00282      .   S
    O203   Zn24      2.00267      .   S
    Zn27   O152      2.02842      .   S
    Zn27   O180      1.98825      .   S
    Zn28   O153      2.02865      .   S
    Zn28   O181      1.98826      .   S
    Zn14   O104      2.02873      .   S
    Zn14   O139      1.98822      .   S
    Zn13   O103      2.02875      .   S
    Zn13   O138      1.98820      .   S
    Zn24   O155      1.96922      .   S
    Zn24   O169      1.98879      .   S
    Zn23   O154      1.96921      .   S
    Zn23   O168      1.98879      .   S
    Zn10   O106      1.96897      .   S
    Zn10   O127      1.98849      .   S
    Zn9    O105      1.96899      .   S
    Zn9    O126      1.98847      .   S
    O152   C72       1.27130      .   S
    O103   C49       1.27125      .   S
    O104   C50       1.27125      .   S
    O153   C73       1.27124      .   S
    O154   C72       1.28299  1_565   S
    O155   C73       1.28298  1_565   S
    O105   C49       1.28298  1_565   S
    O106   C50       1.28298  1_565   S
    O169   C96       1.27538      .   S
    O168   C95       1.27531      .   S
    O126   C95       1.27530      .   S
    O127   C96       1.27537      .   S
    O139   C100      1.27534      .   S
    O180   C99       1.27538      .   S
    O138   C99       1.27534      .   S
    O181   C100      1.27536      .   S
    C90    O114      1.27539      .   S
    C90    O162      1.27538      .   S
    C89    O163      1.27535      .   S
    C89    O113      1.27539  1_655   S
    C86    O101      1.27536      .   S
    C86    O151      1.27530  1_455   S
    C87    O102      1.27536      .   S
    C87    O150      1.27534      .   S
    O114   Zn4       1.98844      .   S
    O162   Zn21      1.98839      .   S
    O163   Zn22      1.98840      .   S
    O113   Zn3       1.98844      .   S
    O101   Zn31      1.98840      .   S
    O102   Zn0       1.98840      .   S
    O151   Zn18      1.98802      .   S
    O150   Zn17      1.98802      .   S
    C79    O173      1.28319      .   S
    C79    O171      1.27123      .   S
    C78    O172      1.28319      .   S
    C78    O170      1.27121      .   S
    C65    O131      1.28316      .   S
    C65    O129      1.27123      .   S
    C64    O130      1.28316      .   S
    C64    O128      1.27121      .   S
    O130   Zn31      1.96911      .   S
    O131   Zn0       1.96911      .   S
    O172   Zn17      1.96880      .   S
    O173   Zn18      1.96880      .   S
    O128   Zn3       2.02880      .   S
    O129   Zn4       2.02864      .   S
    O170   Zn21      2.02865      .   S
    O171   Zn22      2.02865      .   S
    Zn18   O183      2.02909      .   S
    Zn17   O182      2.02910      .   S
    Zn0    O193      1.95515      .   S
    Zn0    O141      2.02849      .   S
    Zn31   O192      1.95515      .   S
    Zn31   O140      2.02848      .   S
    Zn3    O136      1.96903      .   S
    Zn4    O137      1.96902      .   S
    Zn21   O190      1.96902      .   S
    Zn21   O197      1.95518      .   S
    Zn22   O191      1.96903      .   S
    Zn22   O196      1.95513      .   S
    H33    O193      0.99467      .   S
    H32    O192      0.99467      .   S
    O191   C85       1.28332      .   S
    O190   C84       1.28331      .   S
    O136   C66       1.28287      .   S
    O137   C67       1.28286      .   S
    O197   H37       0.99468      .   S
    O196   H36       0.99468      .   S
    O182   C82       1.27136      .   S
    O183   C83       1.27136      .   S
    O141   C69       1.27126      .   S
    O140   C68       1.27127      .   S
    C69    O143      1.28317      .   S
    C68    O142      1.28318      .   S
    C83    O185      1.28266      .   S
    C82    O184      1.28265      .   S
    C67    O135      1.27150      .   S
    C66    O134      1.27147      .   S
    C85    O189      1.27119      .   S
    C84    O188      1.27118      .   S
    H38    O198      0.99502      .   S
    H39    O199      0.99502      .   S
    O188   Zn15      2.02865      .   S
    O189   Zn16      2.02864      .   S
    O135   Zn2       2.02798      .   S
    O134   Zn1       2.02797      .   S
    O199   Zn6       1.95517      .   S
    O198   Zn20      1.95515  1_455   S
    O185   Zn20      1.96930      .   S
    O184   Zn19      1.96929      .   S
    O142   Zn5       1.96908      .   S
    O143   Zn6       1.96907      .   S
    O195   H35       0.99466      .   S
    O195   Zn2       1.95499      .   S
    O194   H34       0.99466      .   S
    O194   Zn1       1.95499  1_655   S
    Zn5    O122      2.02826      .   S
    Zn5    O61       1.98841      .   S
    Zn6    O123      2.02865      .   S
    Zn6    O62       1.98841      .   S
    Zn20   O177      2.02865      .   S
    Zn20   O157      1.98846      .   S
    Zn19   O176      2.02864      .   S
    Zn19   O156      1.98846      .   S
    Zn2    O125      1.96879      .   S
    Zn2    O108      1.98883      .   S
    Zn1    O124      1.96931      .   S
    Zn1    O107      1.98884      .   S
    Zn16   O179      1.96908      .   S
    Zn16   O145      1.98836      .   S
    Zn15   O178      1.96908      .   S
    Zn15   O144      1.98836      .   S
    O122   C57       1.27133      .   S
    O123   C58       1.27123      .   S
    O176   C80       1.27124      .   S
    O177   C81       1.27124      .   S
    O125   C58       1.28330      .   S
    O178   C80       1.28316      .   S
    O179   C81       1.28316      .   S
    O124   C57       1.28318      .   S
    O144   C88       1.27538      .   S
    O145   C48       1.27534      .   S
    O107   C48       1.27533  1_455   S
    O108   C88       1.27535      .   S
    O62    C92       1.27537      .   S
    O61    C91       1.27539      .   S
    O156   C92       1.27539      .   S
    O157   C91       1.27534  1_655   S
    C97    O186      1.27532      .   S
    C97    O132      1.27533      .   S
    C98    O133      1.27532      .   S
    C98    O187      1.27532      .   S
    C94    O175      1.27533      .   S
    C94    O121      1.27535      .   S
    C93    O120      1.27536      .   S
    C93    O174      1.27533      .   S
    O186   Zn29      1.98827      .   S
    O133   Zn12      1.98835      .   S
    O132   Zn11      1.98835      .   S
    O187   Zn30      1.98828      .   S
    O120   Zn7       1.98850      .   S
    O174   Zn25      1.98857      .   S
    O175   Zn26      1.98857      .   S
    O121   Zn8       1.98851      .   S
    C52    O112      1.28294  1_565   S
    C52    O110      1.27124      .   S
    C51    O111      1.28294  1_565   S
    C51    O109      1.27122      .   S
    C71    O149      1.28296  1_565   S
    C71    O147      1.27126      .   S
    C70    O148      1.28296  1_565   S
    C70    O146      1.27126      .   S
    O112   Zn8       1.96922      .   S
    O111   Zn7       1.96922      .   S
    O149   Zn26      1.96901      .   S
    O148   Zn25      1.96903      .   S
    O110   Zn12      2.02871      .   S
    O109   Zn11      2.02871      .   S
    O147   Zn30      2.02877      .   S
    O146   Zn29      2.02875      .   S
    Zn25   O158      2.02844      .   S
    Zn26   O201      1.95522      .   S
    Zn26   O159      2.02844      .   S
    Zn8    O117      2.02847      .   S
    Zn7    O200      1.95521      .   S
    Zn7    O63       2.02848      .   S
    Zn30   O167      1.96914      .   S
    Zn29   O166      1.96890      .   S
    Zn11   O59       1.96912      .   S
    Zn11   O204      1.95513      .   S
    Zn12   O60       1.96911      .   S
    Zn12   O205      1.95511      .   S
    H40    O200      0.99464      .   S
    H41    O201      0.99464      .   S
    O205   H45       0.99469      .   S
    O204   H44       0.99469      .   S
    O158   C74       1.27121      .   S
    O159   C75       1.27119      .   S
    O63    C55       1.27063      .   S
    O117   C56       1.27063      .   S
    O192   Zn18      1.95553  1_455   S
    O193   Zn17      1.95557      .   S
    O194   Zn16      1.95512      .   S
    O195   Zn15      1.95516      .   S
    O196   Zn3       1.95519  1_655   S
    O197   Zn4       1.95519      .   S
    O198   Zn5       1.95517      .   S
    O199   Zn19      1.95519      .   S
    O200   Zn25      1.95522      .   S
    O201   Zn8       1.95523      .   S
    O202   Zn9       2.00293      .   S
    O203   Zn10      2.00295      .   S
    O204   Zn29      1.95520      .   S
    O205   Zn30      1.95522      .   S
    O206   Zn13      1.95521      .   S
    O207   Zn14      1.95522      .   S
    C48    Og208     0.49995      .   S
    C49    Og209     0.49736      .   S
    C50    Og210     0.49737      .   S
    C51    Og211     0.49738      .   S
    C52    Og212     0.49737      .   S
    C53    Og213     0.49746      .   S
    C54    Og214     0.49746      .   S
    C55    Og215     0.49719      .   S
    C56    Og216     0.49718      .   S
    C57    Og217     0.49739      .   S
    C58    Og218     0.49739      .   S
    C64    Og219     0.49739      .   S
    C65    Og220     0.49740      .   S
    C66    Og221     0.49743      .   S
    C67    Og222     0.49742      .   S
    C68    Og223     0.49737      .   S
    C69    Og224     0.49737      .   S
    C70    Og225     0.49735      .   S
    C71    Og226     0.49735      .   S
    C72    Og227     0.49737      .   S
    C73    Og228     0.49738      .   S
    C74    Og229     0.49738      .   S
    C75    Og230     0.49739      .   S
    C76    Og231     0.49742      .   S
    C77    Og232     0.49742      .   S
    C78    Og233     0.49740      .   S
    C79    Og234     0.49739      .   S
    C80    Og235     0.49739      .   S
    C81    Og236     0.49738      .   S
    C82    Og237     0.49737      .   S
    C83    Og238     0.49737      .   S
    C84    Og239     0.49736      .   S
    C85    Og240     0.49735      .   S
    C86    Og241     0.49996      .   S
    C87    Og242     0.49996      .   S
    C88    Og243     0.49995      .   S
    C89    Og244     0.49994      .   S
    C90    Og245     0.49994      .   S
    C91    Og246     0.49995      .   S
    C92    Og247     0.49994      .   S
    C93    Og248     0.50017      .   S
    C94    Og249     0.50017      .   S
    C95    Og250     0.50003      .   S
    C96    Og251     0.49997      .   S
    C97    Og252     0.49993      .   S
    C98    Og253     0.49994      .   S
    C99    Og254     0.49997      .   S
    C100   Og255     0.49997      .   S
