# CIF file generated by openbabel 2.4.90, see http://openbabel.sf.net
data_I
_chemical_name_common ''
_cell_length_a 23.068
_cell_length_b 16.552
_cell_length_c 16.552
_cell_angle_alpha 90.011
_cell_angle_beta 89.999
_cell_angle_gamma 90.002
_space_group_name_H-M_alt 'P 1'
_space_group_name_Hall 'P 1'
loop_
    _symmetry_equiv_pos_as_xyz
    x,y,z
loop_
    _atom_site_label
    _atom_site_type_symbol
    _atom_site_fract_x
    _atom_site_fract_y
    _atom_site_fract_z
    _atom_site_occupancy
    N0      N    0.49999   0.77808   0.08355   1.000
    N1      N    0.75001   0.58355   0.27811   1.000
    N2      N    0.74999   0.41646   0.72187   1.000
    N3      N    0.25000   0.27821   0.41639   1.000
    N4      N    0.24999   0.41646   0.72187   1.000
    N5      N    0.00002   0.08358   0.22174   1.000
    N6      N    0.50002   0.08358   0.22174   1.000
    N7      N    0.25000   0.72181   0.58358   1.000
    N8      N    0.25000   0.58355   0.27811   1.000
    N9      N    0.99999   0.77808   0.08355   1.000
    N10     N    0.99998   0.91643   0.77825   1.000
    N11     N    0.75000   0.72181   0.58358   1.000
    N12     N    0.49998   0.91643   0.77825   1.000
    N13     N    0.75000   0.27821   0.41639   1.000
    N14     N    0.50001   0.22192   0.91643   1.000
    N15     N    0.00001   0.22192   0.91643   1.000
    Zr16    Zr   0.75000   0.00000   0.99985   1.000
    O17     O    0.75000   0.17758   0.87150   1.000
    O18     O    0.85487   0.97351   0.89480   1.000
    O19     O    0.75000   0.12844   0.17747   1.000
    O20     O    0.85488   0.10520   0.97343   1.000
    O21     O    0.64513   0.02650   0.10505   1.000
    O22     O    0.64512   0.89480   0.02642   1.000
    O23     O    0.75000   0.87157   0.82238   1.000
    O24     O    0.85488   0.02650   0.10505   1.000
    O25     O    0.85487   0.89480   0.02641   1.000
    O26     O    0.64512   0.97351   0.89480   1.000
    O27     O    0.75000   0.82243   0.12833   1.000
    O28     O    0.64513   0.10520   0.97342   1.000
    Zr29    Zr   0.00000   0.50000   0.49999   1.000
    O30     O    0.10488   0.39486   0.47348   1.000
    O31     O    0.89512   0.47352   0.60517   1.000
    O32     O    0.00001   0.32245   0.37153   1.000
    O33     O    0.99999   0.62839   0.32243   1.000
    O34     O    0.99999   0.67756   0.62845   1.000
    O35     O    0.10488   0.52649   0.39481   1.000
    O36     O    0.89513   0.39486   0.47348   1.000
    O37     O    0.89512   0.60515   0.52650   1.000
    O38     O    0.89513   0.52649   0.39480   1.000
    O39     O    0.00001   0.37162   0.67755   1.000
    O40     O    0.10487   0.47352   0.60518   1.000
    O41     O    0.10487   0.60516   0.52649   1.000
    Zr42    Zr   0.25000   0.00000   0.99985   1.000
    O43     O    0.25000   0.87157   0.82238   1.000
    O44     O    0.25000   0.82243   0.12833   1.000
    O45     O    0.35488   0.02650   0.10505   1.000
    O46     O    0.25000   0.17758   0.87150   1.000
    O47     O    0.14512   0.89480   0.02642   1.000
    O48     O    0.35487   0.89480   0.02641   1.000
    O49     O    0.14513   0.02650   0.10505   1.000
    O50     O    0.25000   0.12844   0.17747   1.000
    O51     O    0.35488   0.10520   0.97343   1.000
    O52     O    0.35487   0.97351   0.89480   1.000
    O53     O    0.14512   0.97351   0.89480   1.000
    O54     O    0.14513   0.10520   0.97342   1.000
    Zr55    Zr   0.50000   0.50000   0.49999   1.000
    O56     O    0.50001   0.32245   0.37153   1.000
    O57     O    0.60487   0.60516   0.52649   1.000
    O58     O    0.60488   0.39486   0.47348   1.000
    O59     O    0.50001   0.37162   0.67755   1.000
    O60     O    0.49999   0.62839   0.32243   1.000
    O61     O    0.49999   0.67756   0.62845   1.000
    O62     O    0.39512   0.60515   0.52650   1.000
    O63     O    0.60487   0.47352   0.60518   1.000
    O64     O    0.60488   0.52649   0.39481   1.000
    O65     O    0.39513   0.52649   0.39480   1.000
    O66     O    0.39513   0.39486   0.47348   1.000
    O67     O    0.39512   0.47352   0.60517   1.000
loop_
    _geom_bond_atom_site_label_1
    _geom_bond_atom_site_label_2
    _geom_bond_distance
    _geom_bond_site_symmetry_2
    _ccdc_geom_bond_type
    Zr16   O17       3.62690      .   S
    N2     O17       4.66615      .   S
    Zr16   O18       3.01126  1_545   S
    N10    O18       3.97734      .   S
    Zr16   O19       3.62769  1_556   S
    N13    O19       4.66698      .   S
    Zr16   O20       3.01272      .   S
    N15    O20       3.97880  1_455   S
    Zr16   O21       3.01261  1_556   S
    N6     O21       3.97849      .   S
    Zr16   O22       3.01305  1_546   S
    N0     O22       3.97933      .   S
    Zr16   O23       3.62585  1_545   S
    N11    O23       4.66515      .   S
    Zr16   O24       3.01288  1_556   S
    N5     O24       3.97883  1_455   S
    Zr16   O25       3.01304  1_546   S
    N9     O25       3.97926      .   S
    Zr16   O26       3.01156  1_545   S
    N12    O26       3.97774      .   S
    Zr16   O27       3.62813  1_546   S
    N1     O27       4.66738      .   S
    Zr16   O28       3.01273      .   S
    N14    O28       3.97871      .   S
    Zr29   O30       3.01235      .   S
    N3     O30       3.97845      .   S
    Zr29   O31       3.01271  1_455   S
    N2     O31       3.97879      .   S
    Zr29   O32       3.62710      .   S
    N5     O32       4.66644      .   S
    Zr29   O33       3.62709  1_455   S
    N9     O33       4.66650      .   S
    Zr29   O34       3.62714  1_455   S
    N10    O34       4.66647      .   S
    Zr29   O35       3.01267      .   S
    N8     O35       3.97880      .   S
    Zr29   O36       3.01219  1_455   S
    N13    O36       3.97829      .   S
    Zr29   O37       3.01238  1_455   S
    N11    O37       3.97847      .   S
    Zr29   O38       3.01271  1_455   S
    N1     O38       3.97876      .   S
    Zr29   O39       3.62715      .   S
    N15    O39       4.66648      .   S
    Zr29   O40       3.01273      .   S
    N4     O40       3.97876      .   S
    Zr29   O41       3.01227      .   S
    N7     O41       3.97835      .   S
    Zr42   O43       3.62581  1_545   S
    N7     O43       4.66506      .   S
    Zr42   O44       3.62810  1_546   S
    N8     O44       4.66742      .   S
    Zr42   O45       3.01289  1_556   S
    N6     O45       3.97885      .   S
    Zr42   O46       3.62689      .   S
    N4     O46       4.66614      .   S
    Zr42   O47       3.01305  1_546   S
    N9     O47       3.97933  1_655   S
    Zr42   O48       3.01304  1_546   S
    N0     O48       3.97927      .   S
    Zr42   O49       3.01262  1_556   S
    N5     O49       3.97849      .   S
    Zr42   O50       3.62771  1_556   S
    N3     O50       4.66699      .   S
    Zr42   O51       3.01273      .   S
    N14    O51       3.97880      .   S
    Zr42   O52       3.01125  1_545   S
    N12    O52       3.97735      .   S
    Zr42   O53       3.01155  1_545   S
    N10    O53       3.97773  1_655   S
    Zr42   O54       3.01272      .   S
    N15    O54       3.97870      .   S
    Zr55   O56       3.62709      .   S
    N6     O56       4.66644      .   S
    Zr55   O57       3.01227      .   S
    N11    O57       3.97833      .   S
    Zr55   O58       3.01236      .   S
    N13    O58       3.97847      .   S
    Zr55   O59       3.62715      .   S
    N14    O59       4.66648      .   S
    Zr55   O60       3.62710      .   S
    N0     O60       4.66652      .   S
    Zr55   O61       3.62714      .   S
    N12    O61       4.66647      .   S
    Zr55   O62       3.01240      .   S
    N7     O62       3.97850      .   S
    Zr55   O63       3.01274      .   S
    N2     O63       3.97877      .   S
    Zr55   O64       3.01267      .   S
    N1     O64       3.97880      .   S
    Zr55   O65       3.01271      .   S
    N8     O65       3.97877      .   S
    Zr55   O66       3.01220      .   S
    N3     O66       3.97829      .   S
    Zr55   O67       3.01272      .   S
    N4     O67       3.97880      .   S
