# CIF file generated by openbabel 2.4.90, see http://openbabel.sf.net
data_I
_chemical_name_common ''
_cell_length_a 23.068
_cell_length_b 16.552
_cell_length_c 16.552
_cell_angle_alpha 90.011
_cell_angle_beta 89.999
_cell_angle_gamma 90.002
_space_group_name_H-M_alt 'P 1'
_space_group_name_Hall 'P 1'
loop_
    _symmetry_equiv_pos_as_xyz
    x,y,z
loop_
    _atom_site_label
    _atom_site_type_symbol
    _atom_site_fract_x
    _atom_site_fract_y
    _atom_site_fract_z
    _atom_site_occupancy
    Zr0     Zr   0.06988   0.37802   0.35726   1.000
    Zr1     Zr   0.56988   0.37802   0.35726   1.000
    Zr2     Zr   0.06987   0.62199   0.64270   1.000
    Zr3     Zr   0.56987   0.62199   0.64270   1.000
    Zr4     Zr   0.06987   0.64273   0.37802   1.000
    Zr5     Zr   0.56988   0.64273   0.37802   1.000
    Zr6     Zr   0.06988   0.35728   0.62196   1.000
    Zr7     Zr   0.56988   0.35728   0.62196   1.000
    Zr8     Zr   0.18013   0.12199   0.85725   1.000
    Zr9     Zr   0.68012   0.12199   0.85725   1.000
    Zr10    Zr   0.18013   0.87801   0.14274   1.000
    Zr11    Zr   0.68013   0.87801   0.14274   1.000
    Zr12    Zr   0.18012   0.85728   0.87804   1.000
    Zr13    Zr   0.68012   0.85728   0.87804   1.000
    Zr14    Zr   0.18012   0.14272   0.12196   1.000
    Zr15    Zr   0.68012   0.14272   0.12196   1.000
    Zr16    Zr   0.43012   0.62199   0.64273   1.000
    Zr17    Zr   0.93012   0.62199   0.64273   1.000
    Zr18    Zr   0.43012   0.37802   0.35720   1.000
    Zr19    Zr   0.93013   0.37802   0.35720   1.000
    Zr20    Zr   0.43012   0.35728   0.62197   1.000
    Zr21    Zr   0.93013   0.35728   0.62197   1.000
    Zr22    Zr   0.43012   0.64273   0.37803   1.000
    Zr23    Zr   0.93012   0.64273   0.37803   1.000
    Zr24    Zr   0.31987   0.87802   0.14270   1.000
    Zr25    Zr   0.81988   0.87802   0.14270   1.000
    Zr26    Zr   0.31987   0.12200   0.85725   1.000
    Zr27    Zr   0.81987   0.12200   0.85725   1.000
    Zr28    Zr   0.31988   0.14272   0.12195   1.000
    Zr29    Zr   0.81988   0.14272   0.12195   1.000
    Zr30    Zr   0.31988   0.85729   0.87803   1.000
    Zr31    Zr   0.81988   0.85729   0.87803   1.000
    Zr32    Zr   0.00000   0.48687   0.40220   1.000
    Zr33    Zr   0.50000   0.48687   0.40220   1.000
    Zr34    Zr   1.00000   0.51314   0.59774   1.000
    Zr35    Zr   0.50000   0.51314   0.59774   1.000
    Zr36    Zr   1.00000   0.59775   0.48687   1.000
    Zr37    Zr   0.50000   0.59775   0.48687   1.000
    Zr38    Zr   0.00000   0.40226   0.51310   1.000
    Zr39    Zr   0.50000   0.40226   0.51310   1.000
    Zr40    Zr   0.25000   0.01314   0.90222   1.000
    Zr41    Zr   0.75000   0.01314   0.90222   1.000
    Zr42    Zr   0.25000   0.98686   0.09777   1.000
    Zr43    Zr   0.75000   0.98686   0.09777   1.000
    Zr44    Zr   0.25000   0.90229   0.98689   1.000
    Zr45    Zr   0.75000   0.90229   0.98689   1.000
    Zr46    Zr   0.25000   0.09772   0.01310   1.000
    Zr47    Zr   0.75000   0.09772   0.01310   1.000
    Zr48    Zr   0.10838   0.00140   0.18974   1.000
    Zr49    Zr   0.60838   0.00140   0.18974   1.000
    Zr50    Zr   0.10837   0.99858   0.81024   1.000
    Zr51    Zr   0.60837   0.99858   0.81024   1.000
    Zr52    Zr   0.10837   0.81017   0.00140   1.000
    Zr53    Zr   0.60837   0.81017   0.00140   1.000
    Zr54    Zr   0.10838   0.18985   0.99850   1.000
    Zr55    Zr   0.60838   0.18985   0.99850   1.000
    Zr56    Zr   0.14162   0.49861   0.68984   1.000
    Zr57    Zr   0.64162   0.49861   0.68984   1.000
    Zr58    Zr   0.14163   0.50141   0.31019   1.000
    Zr59    Zr   0.64163   0.50141   0.31019   1.000
    Zr60    Zr   0.14162   0.68981   0.50140   1.000
    Zr61    Zr   0.64162   0.68981   0.50140   1.000
    Zr62    Zr   0.14162   0.31022   0.49856   1.000
    Zr63    Zr   0.64163   0.31022   0.49856   1.000
    Zr64    Zr   0.39162   0.99861   0.81025   1.000
    Zr65    Zr   0.89162   0.99861   0.81025   1.000
    Zr66    Zr   0.39163   0.00142   0.18975   1.000
    Zr67    Zr   0.89163   0.00142   0.18975   1.000
    Zr68    Zr   0.39163   0.18984   0.99856   1.000
    Zr69    Zr   0.89163   0.18984   0.99856   1.000
    Zr70    Zr   0.39162   0.81016   0.00140   1.000
    Zr71    Zr   0.89162   0.81016   0.00140   1.000
    Zr72    Zr   0.35838   0.50140   0.31014   1.000
    Zr73    Zr   0.85838   0.50140   0.31014   1.000
    Zr74    Zr   0.35837   0.49860   0.68981   1.000
    Zr75    Zr   0.85837   0.49860   0.68981   1.000
    Zr76    Zr   0.35838   0.31023   0.49856   1.000
    Zr77    Zr   0.85838   0.31023   0.49856   1.000
    Zr78    Zr   0.35837   0.68978   0.50143   1.000
    Zr79    Zr   0.85838   0.68979   0.50143   1.000
    Zr80    Zr   0.00003   0.24880   0.27985   1.000
    Zr81    Zr   0.50003   0.24880   0.27985   1.000
    Zr82    Zr   0.99996   0.75121   0.72014   1.000
    Zr83    Zr   0.49997   0.75121   0.72014   1.000
    Zr84    Zr   0.99998   0.72007   0.24879   1.000
    Zr85    Zr   0.49998   0.72007   0.24879   1.000
    Zr86    Zr   0.00002   0.27994   0.75120   1.000
    Zr87    Zr   0.50002   0.27994   0.75120   1.000
    Zr88    Zr   0.24999   0.25122   0.77988   1.000
    Zr89    Zr   0.74999   0.25122   0.77988   1.000
    Zr90    Zr   0.25001   0.74879   0.22010   1.000
    Zr91    Zr   0.75001   0.74879   0.22013   1.000
    Zr92    Zr   0.25000   0.77984   0.74883   1.000
    Zr93    Zr   0.75000   0.77984   0.74883   1.000
    Zr94    Zr   0.25001   0.22016   0.25116   1.000
    Zr95    Zr   0.75001   0.22016   0.25116   1.000
    Zr96    Zr   0.04937   0.28148   0.29171   1.000
    Zr97    Zr   0.54937   0.28148   0.29171   1.000
    Zr98    Zr   0.15524   0.04074   0.18043   1.000
    Zr99    Zr   0.65524   0.04074   0.18043   1.000
    Zr100   Zr   0.10716   0.92413   0.18377   1.000
    Zr101   Zr   0.60716   0.92413   0.18377   1.000
    Zr102   Zr   0.04930   0.71851   0.70828   1.000
    Zr103   Zr   0.54930   0.71851   0.70828   1.000
    Zr104   Zr   0.15522   0.95924   0.81955   1.000
    Zr105   Zr   0.65522   0.95924   0.81955   1.000
    Zr106   Zr   0.10716   0.07585   0.81620   1.000
    Zr107   Zr   0.60716   0.07585   0.81620   1.000
    Zr108   Zr   0.04932   0.70823   0.28149   1.000
    Zr109   Zr   0.54932   0.70823   0.28149   1.000
    Zr110   Zr   0.15521   0.81952   0.04079   1.000
    Zr111   Zr   0.65521   0.81952   0.04079   1.000
    Zr112   Zr   0.10716   0.81622   0.92415   1.000
    Zr113   Zr   0.60716   0.81622   0.92415   1.000
    Zr114   Zr   0.04935   0.29177   0.71850   1.000
    Zr115   Zr   0.54935   0.29177   0.71850   1.000
    Zr116   Zr   0.15522   0.18047   0.95921   1.000
    Zr117   Zr   0.65522   0.18047   0.95921   1.000
    Zr118   Zr   0.10716   0.18379   0.07580   1.000
    Zr119   Zr   0.60716   0.18379   0.07580   1.000
    Zr120   Zr   0.20065   0.21853   0.79174   1.000
    Zr121   Zr   0.70065   0.21853   0.79174   1.000
    Zr122   Zr   0.09478   0.45925   0.68040   1.000
    Zr123   Zr   0.59478   0.45925   0.68045   1.000
    Zr124   Zr   0.14284   0.57588   0.68379   1.000
    Zr125   Zr   0.64284   0.57588   0.68370   1.000
    Zr126   Zr   0.20068   0.78147   0.20824   1.000
    Zr127   Zr   0.70068   0.78147   0.20824   1.000
    Zr128   Zr   0.09478   0.54077   0.31950   1.000
    Zr129   Zr   0.59478   0.54077   0.31952   1.000
    Zr130   Zr   0.14284   0.42414   0.31619   1.000
    Zr131   Zr   0.64284   0.42414   0.31619   1.000
    Zr132   Zr   0.20066   0.79179   0.78148   1.000
    Zr133   Zr   0.70066   0.79178   0.78148   1.000
    Zr134   Zr   0.09477   0.68045   0.54078   1.000
    Zr135   Zr   0.59477   0.68045   0.54078   1.000
    Zr136   Zr   0.14284   0.68375   0.42415   1.000
    Zr137   Zr   0.64284   0.68375   0.42415   1.000
    Zr138   Zr   0.20067   0.20822   0.21850   1.000
    Zr139   Zr   0.70067   0.20822   0.21850   1.000
    Zr140   Zr   0.09477   0.31955   0.45921   1.000
    Zr141   Zr   0.59478   0.31955   0.45921   1.000
    Zr142   Zr   0.14285   0.31626   0.57583   1.000
    Zr143   Zr   0.64285   0.31626   0.57583   1.000
    Zr144   Zr   0.45062   0.71853   0.70828   1.000
    Zr145   Zr   0.95063   0.71853   0.70828   1.000
    Zr146   Zr   0.34476   0.95927   0.81956   1.000
    Zr147   Zr   0.84476   0.95927   0.81956   1.000
    Zr148   Zr   0.39284   0.07588   0.81621   1.000
    Zr149   Zr   0.89284   0.07588   0.81621   1.000
    Zr150   Zr   0.45070   0.28150   0.29171   1.000
    Zr151   Zr   0.95070   0.28150   0.29171   1.000
    Zr152   Zr   0.34478   0.04077   0.18040   1.000
    Zr153   Zr   0.84478   0.04077   0.18043   1.000
    Zr154   Zr   0.39284   0.92416   0.18375   1.000
    Zr155   Zr   0.89284   0.92416   0.18375   1.000
    Zr156   Zr   0.45068   0.29177   0.71850   1.000
    Zr157   Zr   0.95068   0.29177   0.71850   1.000
    Zr158   Zr   0.34479   0.18049   0.95920   1.000
    Zr159   Zr   0.84479   0.18049   0.95920   1.000
    Zr160   Zr   0.39284   0.18379   0.07583   1.000
    Zr161   Zr   0.89284   0.18379   0.07583   1.000
    Zr162   Zr   0.45065   0.70823   0.28149   1.000
    Zr163   Zr   0.95065   0.70823   0.28149   1.000
    Zr164   Zr   0.34478   0.81953   0.04078   1.000
    Zr165   Zr   0.84478   0.81953   0.04078   1.000
    Zr166   Zr   0.39284   0.81622   0.92410   1.000
    Zr167   Zr   0.89284   0.81622   0.92414   1.000
    Zr168   Zr   0.29935   0.78147   0.20824   1.000
    Zr169   Zr   0.79935   0.78147   0.20824   1.000
    Zr170   Zr   0.40522   0.54076   0.31954   1.000
    Zr171   Zr   0.90522   0.54076   0.31954   1.000
    Zr172   Zr   0.35716   0.42413   0.31621   1.000
    Zr173   Zr   0.85716   0.42413   0.31621   1.000
    Zr174   Zr   0.29932   0.21853   0.79174   1.000
    Zr175   Zr   0.79932   0.21853   0.79174   1.000
    Zr176   Zr   0.40522   0.45924   0.68047   1.000
    Zr177   Zr   0.90522   0.45924   0.68047   1.000
    Zr178   Zr   0.35716   0.57587   0.68379   1.000
    Zr179   Zr   0.85716   0.57587   0.68379   1.000
    Zr180   Zr   0.29935   0.20823   0.21850   1.000
    Zr181   Zr   0.79935   0.20823   0.21850   1.000
    Zr182   Zr   0.40523   0.31955   0.45920   1.000
    Zr183   Zr   0.90523   0.31955   0.45920   1.000
    Zr184   Zr   0.35716   0.31625   0.57580   1.000
    Zr185   Zr   0.85716   0.31626   0.57580   1.000
    Zr186   Zr   0.29933   0.79179   0.78148   1.000
    Zr187   Zr   0.79933   0.79179   0.78148   1.000
    Zr188   Zr   0.40522   0.68046   0.54077   1.000
    Zr189   Zr   0.90522   0.68046   0.54077   1.000
    Zr190   Zr   0.35715   0.68376   0.42415   1.000
    Zr191   Zr   0.85715   0.68376   0.42415   1.000
    Zr192   Zr   0.00000   0.42678   0.40300   1.000
    Zr193   Zr   0.50000   0.42678   0.40300   1.000
    Zr194   Zr   1.00000   0.57322   0.59699   1.000
    Zr195   Zr   0.50000   0.57322   0.59699   1.000
    Zr196   Zr   1.00000   0.59700   0.42678   1.000
    Zr197   Zr   0.50000   0.59700   0.42678   1.000
    Zr198   Zr   0.00000   0.40301   0.57321   1.000
    Zr199   Zr   0.50000   0.40301   0.57321   1.000
    Zr200   Zr   0.25000   0.07323   0.90299   1.000
    Zr201   Zr   0.75000   0.07323   0.90299   1.000
    Zr202   Zr   0.25000   0.92678   0.09000   1.000
    Zr203   Zr   0.75000   0.92678   0.09000   1.000
    Zr204   Zr   0.25000   0.90302   0.92680   1.000
    Zr205   Zr   0.75000   0.90302   0.92680   1.000
    Zr206   Zr   0.25000   0.09699   0.07319   1.000
    Zr207   Zr   0.75000   0.09699   0.07319   1.000
    O208    O    0.13179   0.81484   0.02109   1.000
    O209    O    0.10776   0.81319   0.96277   1.000
    O210    O    0.63179   0.81484   0.02109   1.000
    O211    O    0.60776   0.81319   0.96277   1.000
    O212    O    0.86820   0.81484   0.02109   1.000
    O213    O    0.89223   0.81319   0.96277   1.000
    O214    O    0.36820   0.81484   0.02109   1.000
    O215    O    0.39223   0.81319   0.96275   1.000
    O216    O    0.25000   0.09736   0.04314   1.000
    O217    O    0.75000   0.09736   0.04314   1.000
    O218    O    0.83233   0.84878   0.09174   1.000
    O219    O    0.33233   0.84878   0.09174   1.000
    O220    O    0.16767   0.84877   0.09176   1.000
    O221    O    0.66767   0.84877   0.09176   1.000
    O222    O    0.28494   0.11986   0.09757   1.000
    O223    O    0.78494   0.11986   0.09757   1.000
    O224    O    0.64364   0.16325   0.09888   1.000
    O225    O    0.60777   0.18682   0.03715   1.000
    O226    O    0.14364   0.16325   0.09888   1.000
    O227    O    0.10777   0.18682   0.03715   1.000
    O228    O    0.85636   0.16326   0.09889   1.000
    O229    O    0.89224   0.18682   0.03720   1.000
    O230    O    0.35636   0.16326   0.09889   1.000
    O231    O    0.39224   0.18682   0.03720   1.000
    O232    O    0.25000   0.95682   0.09388   1.000
    O233    O    0.28494   0.90240   0.11635   1.000
    O234    O    0.75000   0.95682   0.09388   1.000
    O235    O    0.78494   0.90240   0.11635   1.000
    O236    O    0.33233   0.09175   0.15118   1.000
    O237    O    0.30961   0.17548   0.17022   1.000
    O238    O    0.83233   0.09175   0.15119   1.000
    O239    O    0.80961   0.17548   0.17022   1.000
    O240    O    0.66768   0.09173   0.15119   1.000
    O241    O    0.69040   0.17547   0.17023   1.000
    O242    O    0.16768   0.09173   0.15119   1.000
    O243    O    0.19040   0.17547   0.17023   1.000
    O244    O    0.85636   0.90109   0.16323   1.000
    O245    O    0.80961   0.82975   0.17547   1.000
    O246    O    0.35636   0.90109   0.16323   1.000
    O247    O    0.30961   0.82975   0.17547   1.000
    O248    O    0.64365   0.90107   0.16325   1.000
    O249    O    0.69040   0.82974   0.17549   1.000
    O250    O    0.14364   0.90107   0.16325   1.000
    O251    O    0.19040   0.82974   0.17549   1.000
    O252    O    0.36821   0.02109   0.18508   1.000
    O253    O    0.13181   0.02107   0.18508   1.000
    O254    O    0.63181   0.02107   0.18508   1.000
    O255    O    0.86821   0.02109   0.18509   1.000
    O256    O    0.39224   0.96279   0.18675   1.000
    O257    O    0.89224   0.96279   0.18675   1.000
    O258    O    0.10777   0.96277   0.18675   1.000
    O259    O    0.60777   0.96277   0.18675   1.000
    O260    O    0.77468   0.76514   0.21418   1.000
    O261    O    0.27468   0.76514   0.21417   1.000
    O262    O    0.22534   0.76514   0.21417   1.000
    O263    O    0.72534   0.76513   0.21418   1.000
    O264    O    0.72534   0.21419   0.23483   1.000
    O265    O    0.27468   0.21420   0.23483   1.000
    O266    O    0.22534   0.21419   0.23483   1.000
    O267    O    0.77468   0.21420   0.23483   1.000
    O268    O    0.52465   0.71415   0.26514   1.000
    O269    O    0.47532   0.71415   0.26514   1.000
    O270    O    0.97532   0.71415   0.26514   1.000
    O271    O    0.02465   0.71415   0.26514   1.000
    O272    O    0.02470   0.26514   0.28578   1.000
    O273    O    0.97537   0.26515   0.28578   1.000
    O274    O    0.52470   0.26514   0.28578   1.000
    O275    O    0.47537   0.26515   0.28578   1.000
    O276    O    0.55960   0.67548   0.32975   1.000
    O277    O    0.44039   0.67548   0.32976   1.000
    O278    O    0.94039   0.67548   0.32976   1.000
    O279    O    0.05960   0.67548   0.32975   1.000
    O280    O    0.05962   0.32975   0.32448   1.000
    O281    O    0.55962   0.32975   0.32448   1.000
    O282    O    0.94041   0.32976   0.32445   1.000
    O283    O    0.44041   0.32976   0.32445   1.000
    O284    O    0.85777   0.46276   0.31318   1.000
    O285    O    0.88180   0.52108   0.31484   1.000
    O286    O    0.35777   0.46276   0.31318   1.000
    O287    O    0.38180   0.52108   0.31484   1.000
    O288    O    0.64223   0.46277   0.31319   1.000
    O289    O    0.61821   0.52109   0.31485   1.000
    O290    O    0.14223   0.46277   0.31319   1.000
    O291    O    0.11820   0.52109   0.31484   1.000
    O292    O    0.10636   0.40108   0.33672   1.000
    O293    O    0.60636   0.40108   0.33672   1.000
    O294    O    0.39364   0.40108   0.33670   1.000
    O295    O    0.89364   0.40108   0.33670   1.000
    O296    O    0.08233   0.59175   0.34876   1.000
    O297    O    0.58233   0.59175   0.34877   1.000
    O298    O    0.41767   0.59174   0.34878   1.000
    O299    O    0.91767   0.59174   0.34878   1.000
    O300    O    0.91768   0.34879   0.40820   1.000
    O301    O    0.41768   0.34879   0.40820   1.000
    O302    O    0.53494   0.40240   0.38013   1.000
    O303    O    0.58233   0.34879   0.40824   1.000
    O304    O    0.03494   0.40240   0.38013   1.000
    O305    O    0.08233   0.34879   0.40824   1.000
    O306    O    0.10636   0.66324   0.40109   1.000
    O307    O    0.60636   0.66324   0.40109   1.000
    O308    O    0.39364   0.66324   0.40109   1.000
    O309    O    0.46506   0.61986   0.40240   1.000
    O310    O    0.89364   0.66324   0.40109   1.000
    O311    O    0.96506   0.61986   0.40240   1.000
    O312    O    0.50000   0.45683   0.40260   1.000
    O313    O    0.00000   0.45683   0.40260   1.000
    O314    O    0.85776   0.68677   0.46279   1.000
    O315    O    0.35776   0.68677   0.46279   1.000
    O316    O    0.14223   0.68678   0.46277   1.000
    O317    O    0.64223   0.68678   0.46277   1.000
    O318    O    0.50000   0.59737   0.45682   1.000
    O319    O    1.00000   0.59737   0.45682   1.000
    O320    O    0.38180   0.31489   0.47888   1.000
    O321    O    0.88181   0.31489   0.47888   1.000
    O322    O    0.61820   0.31489   0.47889   1.000
    O323    O    0.11820   0.31489   0.47889   1.000
    O324    O    0.64224   0.31324   0.53719   1.000
    O325    O    0.14224   0.31324   0.53719   1.000
    O326    O    0.85777   0.31324   0.53718   1.000
    O327    O    0.35777   0.31324   0.53718   1.000
    O328    O    0.61820   0.68513   0.52109   1.000
    O329    O    0.11819   0.68513   0.52109   1.000
    O330    O    0.88180   0.68512   0.52110   1.000
    O331    O    0.38180   0.68512   0.52110   1.000
    O332    O    0.00000   0.40264   0.54316   1.000
    O333    O    0.50000   0.40264   0.54316   1.000
    O334    O    0.41767   0.65122   0.59175   1.000
    O335    O    0.91767   0.65122   0.59175   1.000
    O336    O    0.58232   0.65122   0.59174   1.000
    O337    O    0.08232   0.65122   0.59174   1.000
    O338    O    0.53494   0.38014   0.59758   1.000
    O339    O    0.96506   0.38014   0.59759   1.000
    O340    O    0.89364   0.33677   0.59889   1.000
    O341    O    0.39364   0.33677   0.59889   1.000
    O342    O    0.10636   0.33677   0.59889   1.000
    O343    O    0.60636   0.33677   0.59889   1.000
    O344    O    0.50000   0.54318   0.59737   1.000
    O345    O    0.53494   0.59761   0.61984   1.000
    O346    O    1.00000   0.54318   0.59737   1.000
    O347    O    0.03493   0.59761   0.61984   1.000
    O348    O    0.08233   0.40826   0.65118   1.000
    O349    O    0.05961   0.32452   0.67023   1.000
    O350    O    0.58233   0.40826   0.65121   1.000
    O351    O    0.55962   0.32453   0.67023   1.000
    O352    O    0.91767   0.40826   0.65122   1.000
    O353    O    0.94040   0.32453   0.67024   1.000
    O354    O    0.41767   0.40826   0.65122   1.000
    O355    O    0.44040   0.32453   0.67024   1.000
    O356    O    0.60636   0.59893   0.66320   1.000
    O357    O    0.55959   0.67025   0.67549   1.000
    O358    O    0.10636   0.59893   0.66324   1.000
    O359    O    0.05958   0.67025   0.67549   1.000
    O360    O    0.89364   0.59893   0.66326   1.000
    O361    O    0.94037   0.67026   0.67551   1.000
    O362    O    0.39364   0.59893   0.66326   1.000
    O363    O    0.44037   0.67026   0.67551   1.000
    O364    O    0.11820   0.47893   0.68512   1.000
    O365    O    0.61820   0.47893   0.68515   1.000
    O366    O    0.38180   0.47892   0.68514   1.000
    O367    O    0.88179   0.47892   0.68514   1.000
    O368    O    0.64223   0.53725   0.68677   1.000
    O369    O    0.35777   0.53723   0.68680   1.000
    O370    O    0.85777   0.53723   0.68680   1.000
    O371    O    0.14223   0.53725   0.68681   1.000
    O372    O    0.47530   0.73487   0.71421   1.000
    O373    O    0.97530   0.73487   0.71421   1.000
    O374    O    0.02463   0.73486   0.71421   1.000
    O375    O    0.52463   0.73486   0.71421   1.000
    O376    O    0.52468   0.28585   0.73485   1.000
    O377    O    0.02468   0.28585   0.73485   1.000
    O378    O    0.47535   0.28585   0.73485   1.000
    O379    O    0.97535   0.28586   0.73485   1.000
    O380    O    0.27466   0.78581   0.76516   1.000
    O381    O    0.22533   0.78581   0.76516   1.000
    O382    O    0.72533   0.78581   0.76516   1.000
    O383    O    0.77466   0.78581   0.76516   1.000
    O384    O    0.77465   0.23488   0.78581   1.000
    O385    O    0.72532   0.23488   0.78581   1.000
    O386    O    0.22532   0.23487   0.78581   1.000
    O387    O    0.27465   0.23488   0.78581   1.000
    O388    O    0.30961   0.82454   0.82975   1.000
    O389    O    0.69039   0.82453   0.82976   1.000
    O390    O    0.19039   0.82453   0.82976   1.000
    O391    O    0.80961   0.82454   0.82975   1.000
    O392    O    0.19039   0.17026   0.82449   1.000
    O393    O    0.30960   0.17026   0.82449   1.000
    O394    O    0.80960   0.17026   0.82449   1.000
    O395    O    0.69039   0.17026   0.82449   1.000
    O396    O    0.60776   0.03722   0.81322   1.000
    O397    O    0.63179   0.97891   0.81490   1.000
    O398    O    0.10776   0.03722   0.81322   1.000
    O399    O    0.13179   0.97891   0.81490   1.000
    O400    O    0.89223   0.03724   0.81323   1.000
    O401    O    0.86819   0.97894   0.81490   1.000
    O402    O    0.39223   0.03724   0.81323   1.000
    O403    O    0.36819   0.97894   0.81490   1.000
    O404    O    0.64364   0.09892   0.83672   1.000
    O405    O    0.14364   0.09892   0.83672   1.000
    O406    O    0.85635   0.09894   0.83673   1.000
    O407    O    0.35635   0.09894   0.83673   1.000
    O408    O    0.66767   0.90826   0.84879   1.000
    O409    O    0.16767   0.90826   0.84879   1.000
    O410    O    0.83232   0.90828   0.84879   1.000
    O411    O    0.33232   0.90828   0.84879   1.000
    O412    O    0.33233   0.15124   0.90823   1.000
    O413    O    0.78494   0.09761   0.88012   1.000
    O414    O    0.83233   0.15124   0.90823   1.000
    O415    O    0.66767   0.15123   0.90823   1.000
    O416    O    0.21506   0.09761   0.88012   1.000
    O417    O    0.16767   0.15123   0.90823   1.000
    O418    O    0.85636   0.83676   0.90108   1.000
    O419    O    0.35636   0.83676   0.90107   1.000
    O420    O    0.14364   0.83675   0.90109   1.000
    O421    O    0.21506   0.88015   0.90242   1.000
    O422    O    0.64364   0.83675   0.90109   1.000
    O423    O    0.71506   0.88015   0.90242   1.000
    O424    O    0.25000   0.04319   0.90260   1.000
    O425    O    0.75000   0.04319   0.90260   1.000
    O426    O    0.75000   0.90265   0.95684   1.000
    O427    O    0.25000   0.90265   0.95684   1.000
    O428    O    0.36821   0.18516   0.97888   1.000
    O429    O    0.86821   0.18516   0.97888   1.000
    O430    O    0.13180   0.18516   0.97885   1.000
    O431    O    0.63180   0.18516   0.97885   1.000
    O432    O    0.96506   0.40240   0.38010   1.000
    O433    O    0.46506   0.40240   0.38010   1.000
    O434    O    0.96506   0.59760   0.61986   1.000
    O435    O    0.46506   0.59760   0.61986   1.000
    O436    O    0.03494   0.61986   0.40240   1.000
    O437    O    0.53494   0.61986   0.40240   1.000
    O438    O    0.03494   0.38014   0.59758   1.000
    O439    O    0.46506   0.38014   0.59759   1.000
    O440    O    0.28493   0.09761   0.88012   1.000
    O441    O    0.71506   0.09761   0.88012   1.000
    O442    O    0.21506   0.90239   0.11637   1.000
    O443    O    0.71506   0.90239   0.11637   1.000
    O444    O    0.28494   0.88015   0.90241   1.000
    O445    O    0.78494   0.88015   0.90241   1.000
    O446    O    0.21506   0.11986   0.09758   1.000
    O447    O    0.71506   0.11985   0.09758   1.000
    N448    N    0.49999   0.77808   0.08355   1.000
    O449    O    0.54024   0.78960   0.05298   1.000
    O450    O    0.45974   0.78960   0.05297   1.000
    O451    O    0.49999   0.75677   0.14486   1.000
    N452    N    0.75001   0.58355   0.27811   1.000
    O453    O    0.75001   0.64486   0.25681   1.000
    O454    O    0.79025   0.55297   0.28962   1.000
    O455    O    0.70976   0.55297   0.28963   1.000
    N456    N    0.74999   0.41646   0.72187   1.000
    O457    O    0.70975   0.44704   0.71037   1.000
    O458    O    0.74999   0.35515   0.74315   1.000
    O459    O    0.79025   0.44704   0.71036   1.000
    N460    N    0.25000   0.27821   0.41639   1.000
    O461    O    0.29025   0.28972   0.44697   1.000
    O462    O    0.20975   0.28971   0.44697   1.000
    O463    O    0.25001   0.25689   0.35508   1.000
    N464    N    0.24999   0.41646   0.72187   1.000
    O465    O    0.24999   0.35515   0.74315   1.000
    O466    O    0.20975   0.44704   0.71037   1.000
    O467    O    0.29024   0.44704   0.71036   1.000
    N468    N    0.00002   0.08358   0.22174   1.000
    O469    O    0.00002   0.14489   0.24308   1.000
    O470    O    0.04026   0.05299   0.21025   1.000
    O471    O    0.95976   0.05300   0.21025   1.000
    N472    N    0.50002   0.08358   0.22174   1.000
    O473    O    0.50002   0.14489   0.24308   1.000
    O474    O    0.54026   0.05299   0.21025   1.000
    O475    O    0.45976   0.05300   0.21025   1.000
    N476    N    0.25000   0.72181   0.58358   1.000
    O477    O    0.29025   0.71030   0.55301   1.000
    O478    O    0.20975   0.71031   0.55300   1.000
    O479    O    0.25000   0.74313   0.64490   1.000
    N480    N    0.25000   0.58355   0.27811   1.000
    O481    O    0.25001   0.64486   0.25681   1.000
    O482    O    0.20975   0.55297   0.28963   1.000
    O483    O    0.29025   0.55297   0.28962   1.000
    N484    N    0.99999   0.77808   0.08355   1.000
    O485    O    0.95974   0.78960   0.05298   1.000
    O486    O    0.99999   0.75677   0.14486   1.000
    O487    O    0.04024   0.78960   0.05298   1.000
    N488    N    0.99998   0.91643   0.77825   1.000
    O489    O    0.99998   0.85512   0.75691   1.000
    O490    O    0.95974   0.94702   0.78974   1.000
    O491    O    0.04023   0.94701   0.78974   1.000
    N492    N    0.75000   0.72181   0.58358   1.000
    O493    O    0.70975   0.71031   0.55300   1.000
    O494    O    0.75000   0.74313   0.64490   1.000
    O495    O    0.79025   0.71030   0.55300   1.000
    N496    N    0.49998   0.91643   0.77825   1.000
    O497    O    0.49998   0.85512   0.75691   1.000
    O498    O    0.45974   0.94702   0.78974   1.000
    O499    O    0.54024   0.94701   0.78974   1.000
    N500    N    0.75000   0.27821   0.41639   1.000
    O501    O    0.79025   0.28972   0.44697   1.000
    O502    O    0.75001   0.25689   0.35508   1.000
    O503    O    0.70975   0.28972   0.44697   1.000
    N504    N    0.50001   0.22192   0.91643   1.000
    O505    O    0.54026   0.21041   0.94699   1.000
    O506    O    0.50001   0.24324   0.85512   1.000
    O507    O    0.45976   0.21040   0.94700   1.000
    N508    N    0.00001   0.22192   0.91643   1.000
    O509    O    0.00001   0.24324   0.85512   1.000
    O510    O    0.95976   0.21040   0.94700   1.000
    O511    O    0.04026   0.21041   0.94699   1.000
loop_
    _geom_bond_atom_site_label_1
    _geom_bond_atom_site_label_2
    _geom_bond_distance
    _geom_bond_site_symmetry_2
    _ccdc_geom_bond_type
    Zr52   O208      0.63572      .   S
    Zr110  O208      0.63572      .   S
    Zr52   O209      0.64144  1_554   S
    Zr112  O209      0.64144      .   S
    Zr53   O210      0.63572      .   S
    Zr111  O210      0.63572      .   S
    Zr53   O211      0.64144  1_554   S
    Zr113  O211      0.64144      .   S
    Zr71   O212      0.63569      .   S
    Zr165  O212      0.63569      .   S
    Zr71   O213      0.64153  1_554   S
    Zr167  O213      0.64153      .   S
    Zr70   O214      0.63569      .   S
    Zr164  O214      0.63569      .   S
    Zr70   O215      0.64187  1_554   S
    Zr166  O215      0.64187      .   S
    Zr46   O216      0.49734      .   S
    Zr206  O216      0.49734      .   S
    Zr47   O217      0.49734      .   S
    Zr207  O217      0.49734      .   S
    Zr165  O218      1.01397      .   S
    Zr25   O218      1.01397      .   S
    Zr164  O219      1.01397      .   S
    Zr24   O219      1.01397      .   S
    Zr110  O220      1.01422      .   S
    Zr10   O220      1.01422      .   S
    Zr111  O221      1.01421      .   S
    Zr11   O221      1.01421      .   S
    Zr206  O222      0.97757      .   S
    Zr28   O222      0.97757      .   S
    Zr207  O223      0.97757      .   S
    Zr29   O223      0.97757      .   S
    Zr119  O224      0.98473      .   S
    Zr15   O224      0.98473      .   S
    Zr119  O225      0.64186      .   S
    Zr55   O225      0.64186  1_556   S
    Zr118  O226      0.98474      .   S
    Zr14   O226      0.98474      .   S
    Zr118  O227      0.64186      .   S
    Zr54   O227      0.64186  1_556   S
    Zr161  O228      0.98458      .   S
    Zr29   O228      0.98458      .   S
    Zr161  O229      0.64161      .   S
    Zr69   O229      0.64161  1_556   S
    Zr160  O230      0.98458      .   S
    Zr28   O230      0.98458      .   S
    Zr160  O231      0.64161      .   S
    Zr68   O231      0.64161  1_556   S
    Zr202  O232      0.50141      .   S
    Zr42   O232      0.50141      .   S
    Zr202  O233      1.00134      .   S
    Zr24   O233      1.00134      .   S
    Zr203  O234      0.50141      .   S
    Zr43   O234      0.50141      .   S
    Zr203  O235      1.00134      .   S
    Zr25   O235      1.00134      .   S
    Zr28   O236      1.01421      .   S
    Zr152  O236      1.01421      .   S
    Zr28   O237      0.99413      .   S
    Zr180  O237      0.99413      .   S
    Zr29   O238      1.01432      .   S
    Zr153  O238      1.01432      .   S
    Zr29   O239      0.99413      .   S
    Zr181  O239      0.99413      .   S
    Zr15   O240      1.01437      .   S
    Zr99   O240      1.01437      .   S
    Zr15   O241      0.99411      .   S
    Zr139  O241      0.99411      .   S
    Zr14   O242      1.01438      .   S
    Zr98   O242      1.01438      .   S
    Zr14   O243      0.99410      .   S
    Zr138  O243      0.99410      .   S
    Zr25   O244      0.98461      .   S
    Zr155  O244      0.98461      .   S
    Zr25   O245      0.99439      .   S
    Zr169  O245      0.99439      .   S
    Zr24   O246      0.98461      .   S
    Zr154  O246      0.98461      .   S
    Zr24   O247      0.99439      .   S
    Zr168  O247      0.99439      .   S
    Zr11   O248      0.98448      .   S
    Zr101  O248      0.98448      .   S
    Zr11   O249      0.99424      .   S
    Zr127  O249      0.99424      .   S
    Zr10   O250      0.98449      .   S
    Zr100  O250      0.98449      .   S
    Zr10   O251      0.99423      .   S
    Zr126  O251      0.99423      .   S
    Zr152  O252      0.63565      .   S
    Zr66   O252      0.63565      .   S
    Zr98   O253      0.63562      .   S
    Zr48   O253      0.63562      .   S
    Zr99   O254      0.63562      .   S
    Zr49   O254      0.63562      .   S
    Zr153  O255      0.63562      .   S
    Zr67   O255      0.63562      .   S
    Zr154  O256      0.64150      .   S
    Zr66   O256      0.64150  1_545   S
    Zr155  O257      0.64149      .   S
    Zr67   O257      0.64149  1_545   S
    Zr100  O258      0.64149      .   S
    Zr48   O258      0.64149  1_545   S
    Zr101  O259      0.64149      .   S
    Zr49   O259      0.64149  1_545   S
    Zr169  O260      0.63769      .   S
    Zr91   O260      0.63769      .   S
    Zr168  O261      0.63765      .   S
    Zr90   O261      0.63765      .   S
    Zr126  O262      0.63765      .   S
    Zr90   O262      0.63765      .   S
    Zr127  O263      0.63769      .   S
    Zr91   O263      0.63769      .   S
    Zr139  O264      0.63767      .   S
    Zr95   O264      0.63767      .   S
    Zr180  O265      0.63769      .   S
    Zr94   O265      0.63769      .   S
    Zr138  O266      0.63767      .   S
    Zr94   O266      0.63767      .   S
    Zr181  O267      0.63768      .   S
    Zr95   O267      0.63768      .   S
    Zr85   O268      0.63770      .   S
    Zr109  O268      0.63770      .   S
    Zr85   O269      0.63769      .   S
    Zr162  O269      0.63769      .   S
    Zr84   O270      0.63768      .   S
    Zr163  O270      0.63768      .   S
    Zr84   O271      0.63769  1_655   S
    Zr108  O271      0.63769      .   S
    Zr80   O272      0.63768      .   S
    Zr96   O272      0.63768      .   S
    Zr80   O273      0.63765  1_455   S
    Zr151  O273      0.63765      .   S
    Zr81   O274      0.63768      .   S
    Zr97   O274      0.63768      .   S
    Zr81   O275      0.63767      .   S
    Zr150  O275      0.63767      .   S
    Zr109  O276      0.99422      .   S
    Zr5    O276      0.99422      .   S
    Zr162  O277      0.99420      .   S
    Zr22   O277      0.99420      .   S
    Zr163  O278      0.99420      .   S
    Zr23   O278      0.99420      .   S
    Zr108  O279      0.99422      .   S
    Zr4    O279      0.99422      .   S
    Zr96   O280      0.99420      .   S
    Zr0    O280      0.99420      .   S
    Zr97   O281      0.99420      .   S
    Zr1    O281      0.99420      .   S
    Zr151  O282      0.99401      .   S
    Zr19   O282      0.99401      .   S
    Zr150  O283      0.99401      .   S
    Zr18   O283      0.99401      .   S
    Zr73   O284      0.64160      .   S
    Zr173  O284      0.64160      .   S
    Zr73   O285      0.63561      .   S
    Zr171  O285      0.63561      .   S
    Zr72   O286      0.64160      .   S
    Zr172  O286      0.64160      .   S
    Zr72   O287      0.63560      .   S
    Zr170  O287      0.63560      .   S
    Zr59   O288      0.64158      .   S
    Zr131  O288      0.64158      .   S
    Zr59   O289      0.63562      .   S
    Zr129  O289      0.63562      .   S
    Zr58   O290      0.64158      .   S
    Zr130  O290      0.64158      .   S
    Zr58   O291      0.63561      .   S
    Zr128  O291      0.63561      .   S
    Zr130  O292      0.98455      .   S
    Zr0    O292      0.98455      .   S
    Zr131  O293      0.98455      .   S
    Zr1    O293      0.98455      .   S
    Zr172  O294      0.98440      .   S
    Zr18   O294      0.98440      .   S
    Zr173  O295      0.98440      .   S
    Zr19   O295      0.98440      .   S
    Zr128  O296      1.01440      .   S
    Zr4    O296      1.01440      .   S
    Zr129  O297      1.01432      .   S
    Zr5    O297      1.01432      .   S
    Zr170  O298      1.01433      .   S
    Zr22   O298      1.01433      .   S
    Zr171  O299      1.01433      .   S
    Zr23   O299      1.01433      .   S
    Zr19   O300      1.01455      .   S
    Zr183  O300      1.01455      .   S
    Zr18   O301      1.01455      .   S
    Zr182  O301      1.01455      .   S
    Zr1    O302      0.97758      .   S
    Zr193  O302      0.97758      .   S
    Zr1    O303      1.01424      .   S
    Zr141  O303      1.01424      .   S
    Zr0    O304      0.97758      .   S
    Zr192  O304      0.97758      .   S
    Zr0    O305      1.01424      .   S
    Zr140  O305      1.01424      .   S
    Zr4    O306      0.98451      .   S
    Zr136  O306      0.98451      .   S
    Zr5    O307      0.98451      .   S
    Zr137  O307      0.98451      .   S
    Zr22   O308      0.98451      .   S
    Zr190  O308      0.98451      .   S
    Zr22   O309      0.97759      .   S
    Zr197  O309      0.97759      .   S
    Zr23   O310      0.98451      .   S
    Zr191  O310      0.98451      .   S
    Zr23   O311      0.97757      .   S
    Zr196  O311      0.97757      .   S
    Zr33   O312      0.49733      .   S
    Zr193  O312      0.49733      .   S
    Zr32   O313      0.49733      .   S
    Zr192  O313      0.49733      .   S
    Zr191  O314      0.64166      .   S
    Zr79   O314      0.64166      .   S
    Zr190  O315      0.64166      .   S
    Zr78   O315      0.64166      .   S
    Zr136  O316      0.64144      .   S
    Zr60   O316      0.64144      .   S
    Zr137  O317      0.64143      .   S
    Zr61   O317      0.64143      .   S
    Zr197  O318      0.49734      .   S
    Zr37   O318      0.49734      .   S
    Zr196  O319      0.49734      .   S
    Zr36   O319      0.49734      .   S
    Zr182  O320      0.63568      .   S
    Zr76   O320      0.63568      .   S
    Zr183  O321      0.63568      .   S
    Zr77   O321      0.63568      .   S
    Zr141  O322      0.63563      .   S
    Zr63   O322      0.63563      .   S
    Zr140  O323      0.63563      .   S
    Zr62   O323      0.63563      .   S
    Zr63   O324      0.64159      .   S
    Zr143  O324      0.64159      .   S
    Zr62   O325      0.64159      .   S
    Zr142  O325      0.64159      .   S
    Zr77   O326      0.64133      .   S
    Zr185  O326      0.64133      .   S
    Zr76   O327      0.64133      .   S
    Zr184  O327      0.64133      .   S
    Zr61   O328      0.63575      .   S
    Zr135  O328      0.63575      .   S
    Zr60   O329      0.63574      .   S
    Zr134  O329      0.63574      .   S
    Zr79   O330      0.63559      .   S
    Zr189  O330      0.63559      .   S
    Zr78   O331      0.63559      .   S
    Zr188  O331      0.63559      .   S
    Zr38   O332      0.49751      .   S
    Zr198  O332      0.49751      .   S
    Zr39   O333      0.49751      .   S
    Zr199  O333      0.49751      .   S
    Zr188  O334      1.01432      .   S
    Zr16   O334      1.01432      .   S
    Zr189  O335      1.01432      .   S
    Zr17   O335      1.01432      .   S
    Zr135  O336      1.01399      .   S
    Zr3    O336      1.01399      .   S
    Zr134  O337      1.01399      .   S
    Zr2    O337      1.01399      .   S
    Zr199  O338      0.97758      .   S
    Zr7    O338      0.97758      .   S
    Zr198  O339      0.97758  1_455   S
    Zr21   O339      0.97758      .   S
    Zr185  O340      0.98465      .   S
    Zr21   O340      0.98465      .   S
    Zr184  O341      0.98464      .   S
    Zr20   O341      0.98464      .   S
    Zr142  O342      0.98454      .   S
    Zr6    O342      0.98454      .   S
    Zr143  O343      0.98453      .   S
    Zr7    O343      0.98453      .   S
    Zr195  O344      0.49733      .   S
    Zr35   O344      0.49733      .   S
    Zr195  O345      0.97749      .   S
    Zr3    O345      0.97749      .   S
    Zr194  O346      0.49733      .   S
    Zr34   O346      0.49733      .   S
    Zr194  O347      0.97749  1_655   S
    Zr2    O347      0.97749      .   S
    Zr6    O348      1.01413      .   S
    Zr122  O348      1.01413      .   S
    Zr6    O349      0.99421      .   S
    Zr114  O349      0.99421      .   S
    Zr7    O350      1.01433      .   S
    Zr123  O350      1.01433      .   S
    Zr7    O351      0.99420      .   S
    Zr115  O351      0.99420      .   S
    Zr21   O352      1.01433      .   S
    Zr177  O352      1.01433      .   S
    Zr21   O353      0.99423      .   S
    Zr157  O353      0.99423      .   S
    Zr20   O354      1.01432      .   S
    Zr176  O354      1.01432      .   S
    Zr20   O355      0.99423      .   S
    Zr156  O355      0.99423      .   S
    Zr3    O356      0.98440      .   S
    Zr125  O356      0.98440      .   S
    Zr3    O357      0.99442      .   S
    Zr103  O357      0.99442      .   S
    Zr2    O358      0.98465      .   S
    Zr124  O358      0.98465      .   S
    Zr2    O359      0.99442      .   S
    Zr102  O359      0.99442      .   S
    Zr17   O360      0.98454      .   S
    Zr179  O360      0.98454      .   S
    Zr17   O361      0.99418      .   S
    Zr145  O361      0.99418      .   S
    Zr16   O362      0.98454      .   S
    Zr178  O362      0.98454      .   S
    Zr16   O363      0.99418      .   S
    Zr144  O363      0.99418      .   S
    Zr122  O364      0.63566      .   S
    Zr56   O364      0.63566      .   S
    Zr123  O365      0.63561      .   S
    Zr57   O365      0.63561      .   S
    Zr176  O366      0.63562      .   S
    Zr74   O366      0.63562      .   S
    Zr177  O367      0.63562      .   S
    Zr75   O367      0.63562      .   S
    Zr125  O368      0.64165      .   S
    Zr57   O368      0.64165      .   S
    Zr178  O369      0.64158      .   S
    Zr74   O369      0.64158      .   S
    Zr179  O370      0.64158      .   S
    Zr75   O370      0.64158      .   S
    Zr124  O371      0.64159      .   S
    Zr56   O371      0.64159      .   S
    Zr144  O372      0.63769      .   S
    Zr83   O372      0.63769      .   S
    Zr145  O373      0.63767      .   S
    Zr82   O373      0.63767      .   S
    Zr102  O374      0.63767      .   S
    Zr82   O374      0.63767  1_655   S
    Zr103  O375      0.63768      .   S
    Zr83   O375      0.63768      .   S
    Zr115  O376      0.63769      .   S
    Zr87   O376      0.63769      .   S
    Zr114  O377      0.63769      .   S
    Zr86   O377      0.63769      .   S
    Zr156  O378      0.63769      .   S
    Zr87   O378      0.63769      .   S
    Zr157  O379      0.63767      .   S
    Zr86   O379      0.63767  1_455   S
    Zr92   O380      0.63766      .   S
    Zr186  O380      0.63766      .   S
    Zr92   O381      0.63766      .   S
    Zr132  O381      0.63766      .   S
    Zr93   O382      0.63766      .   S
    Zr133  O382      0.63766      .   S
    Zr93   O383      0.63766      .   S
    Zr187  O383      0.63766      .   S
    Zr89   O384      0.63766      .   S
    Zr175  O384      0.63766      .   S
    Zr89   O385      0.63767      .   S
    Zr121  O385      0.63767      .   S
    Zr88   O386      0.63768      .   S
    Zr120  O386      0.63768      .   S
    Zr88   O387      0.63766      .   S
    Zr174  O387      0.63766      .   S
    Zr186  O388      0.99414      .   S
    Zr30   O388      0.99414      .   S
    Zr133  O389      0.99418      .   S
    Zr13   O389      0.99418      .   S
    Zr132  O390      0.99417      .   S
    Zr12   O390      0.99417      .   S
    Zr187  O391      0.99414      .   S
    Zr31   O391      0.99414      .   S
    Zr120  O392      0.99425      .   S
    Zr8    O392      0.99425      .   S
    Zr174  O393      0.99428      .   S
    Zr26   O393      0.99428      .   S
    Zr175  O394      0.99428      .   S
    Zr27   O394      0.99428      .   S
    Zr121  O395      0.99426      .   S
    Zr9    O395      0.99426      .   S
    Zr51   O396      0.64147  1_565   S
    Zr107  O396      0.64147      .   S
    Zr51   O397      0.63562      .   S
    Zr105  O397      0.63562      .   S
    Zr50   O398      0.64147  1_565   S
    Zr106  O398      0.64147      .   S
    Zr50   O399      0.63561      .   S
    Zr104  O399      0.63561      .   S
    Zr65   O400      0.64148  1_565   S
    Zr149  O400      0.64148      .   S
    Zr65   O401      0.63563      .   S
    Zr147  O401      0.63563      .   S
    Zr64   O402      0.64148  1_565   S
    Zr148  O402      0.64148      .   S
    Zr64   O403      0.63563      .   S
    Zr146  O403      0.63563      .   S
    Zr107  O404      0.98461      .   S
    Zr9    O404      0.98461      .   S
    Zr106  O405      0.98461      .   S
    Zr8    O405      0.98461      .   S
    Zr149  O406      0.98451      .   S
    Zr27   O406      0.98451      .   S
    Zr148  O407      0.98451      .   S
    Zr26   O407      0.98451      .   S
    Zr105  O408      1.01436      .   S
    Zr13   O408      1.01436      .   S
    Zr104  O409      1.01436      .   S
    Zr12   O409      1.01436      .   S
    Zr147  O410      1.01438      .   S
    Zr31   O410      1.01438      .   S
    Zr146  O411      1.01438      .   S
    Zr30   O411      1.01438      .   S
    Zr26   O412      1.01422      .   S
    Zr158  O412      1.01422      .   S
    Zr27   O413      0.97761      .   S
    Zr201  O413      0.97761      .   S
    Zr27   O414      1.01422      .   S
    Zr159  O414      1.01422      .   S
    Zr9    O415      1.01424      .   S
    Zr117  O415      1.01424      .   S
    Zr8    O416      0.97760      .   S
    Zr200  O416      0.97760      .   S
    Zr8    O417      1.01424      .   S
    Zr116  O417      1.01424      .   S
    Zr31   O418      0.98457      .   S
    Zr167  O418      0.98457      .   S
    Zr30   O419      0.98445      .   S
    Zr166  O419      0.98445      .   S
    Zr12   O420      0.98456      .   S
    Zr112  O420      0.98456      .   S
    Zr12   O421      0.97757      .   S
    Zr204  O421      0.97757      .   S
    Zr13   O422      0.98456      .   S
    Zr113  O422      0.98456      .   S
    Zr13   O423      0.97756      .   S
    Zr205  O423      0.97756      .   S
    Zr40   O424      0.49732      .   S
    Zr200  O424      0.49732      .   S
    Zr41   O425      0.49732      .   S
    Zr201  O425      0.49732      .   S
    Zr205  O426      0.49734      .   S
    Zr45   O426      0.49734      .   S
    Zr204  O427      0.49734      .   S
    Zr44   O427      0.49734      .   S
    Zr158  O428      0.63561      .   S
    Zr68   O428      0.63561      .   S
    Zr159  O429      0.63560      .   S
    Zr69   O429      0.63560      .   S
    Zr116  O430      0.63531      .   S
    Zr54   O430      0.63531      .   S
    Zr117  O431      0.63532      .   S
    Zr55   O431      0.63532      .   S
    Zr192  O432      0.97777  1_455   S
    Zr19   O432      0.97777      .   S
    Zr193  O433      0.97778      .   S
    Zr18   O433      0.97778      .   S
    Zr194  O434      0.97756      .   S
    Zr17   O434      0.97756      .   S
    Zr195  O435      0.97758      .   S
    Zr16   O435      0.97758      .   S
    Zr196  O436      0.97759  1_655   S
    Zr4    O436      0.97759      .   S
    Zr197  O437      0.97760      .   S
    Zr5    O437      0.97760      .   S
    Zr198  O438      0.97758      .   S
    Zr6    O438      0.97758      .   S
    Zr199  O439      0.97760      .   S
    Zr20   O439      0.97760      .   S
    Zr200  O440      0.97761      .   S
    Zr26   O440      0.97761      .   S
    Zr201  O441      0.97761      .   S
    Zr9    O441      0.97761      .   S
    Zr202  O442      1.00147      .   S
    Zr10   O442      1.00147      .   S
    Zr203  O443      1.00147      .   S
    Zr11   O443      1.00147      .   S
    Zr204  O444      0.97760      .   S
    Zr30   O444      0.97760      .   S
    Zr205  O445      0.97761      .   S
    Zr31   O445      0.97761      .   S
    Zr206  O446      0.97760      .   S
    Zr14   O446      0.97760      .   S
    Zr207  O447      0.97761      .   S
    Zr15   O447      0.97761      .   S
    N448   O449      1.07451      .   S
    Zr53   O449      1.82058      .   S
    N448   O450      1.07449      .   S
    Zr70   O450      1.82050      .   S
    N448   O451      1.07452      .   S
    Zr85   O451      1.82439      .   S
    N452   O453      1.07447      .   S
    Zr91   O453      1.82439      .   S
    N452   O454      1.07450      .   S
    Zr73   O454      1.82047      .   S
    N452   O455      1.07448      .   S
    Zr59   O455      1.82045      .   S
    N456   O457      1.07448      .   S
    Zr57   O457      1.82044      .   S
    N456   O458      1.07439      .   S
    Zr89   O458      1.82460      .   S
    N456   O459      1.07447      .   S
    Zr75   O459      1.82042      .   S
    N460   O461      1.07448      .   S
    Zr76   O461      1.82042      .   S
    N460   O462      1.07450      .   S
    Zr62   O462      1.82044      .   S
    N460   O463      1.07436      .   S
    Zr94   O463      1.82428      .   S
    N464   O465      1.07439      .   S
    Zr88   O465      1.82460      .   S
    N464   O466      1.07449      .   S
    Zr56   O466      1.82044      .   S
    N464   O467      1.07447      .   S
    Zr74   O467      1.82043      .   S
    N468   O469      1.07444      .   S
    Zr80   O469      1.82434      .   S
    N468   O470      1.07445      .   S
    Zr48   O470      1.82036      .   S
    N468   O471      1.07447  1_455   S
    Zr67   O471      1.82041      .   S
    N472   O473      1.07444      .   S
    Zr81   O473      1.82434      .   S
    N472   O474      1.07445      .   S
    Zr49   O474      1.82038      .   S
    N472   O475      1.07447      .   S
    Zr66   O475      1.82041      .   S
    N476   O477      1.07446      .   S
    Zr78   O477      1.82038      .   S
    N476   O478      1.07452      .   S
    Zr60   O478      1.82054      .   S
    N476   O479      1.07443      .   S
    Zr92   O479      1.82430      .   S
    N480   O481      1.07451      .   S
    Zr90   O481      1.82451      .   S
    N480   O482      1.07449      .   S
    Zr58   O482      1.82044      .   S
    N480   O483      1.07451      .   S
    Zr72   O483      1.82048      .   S
    N484   O485      1.07449      .   S
    Zr71   O485      1.82050      .   S
    N484   O486      1.07450      .   S
    Zr84   O486      1.82438      .   S
    N484   O487      1.07451  1_655   S
    Zr52   O487      1.82058      .   S
    N488   O489      1.07443      .   S
    Zr82   O489      1.82432      .   S
    N488   O490      1.07444      .   S
    Zr65   O490      1.82035      .   S
    N488   O491      1.07447  1_655   S
    Zr50   O491      1.82042      .   S
    N492   O493      1.07449      .   S
    Zr61   O493      1.82050      .   S
    N492   O494      1.07449      .   S
    Zr93   O494      1.82437      .   S
    N492   O495      1.07444      .   S
    Zr79   O495      1.82035      .   S
    N496   O497      1.07443      .   S
    Zr83   O497      1.82432      .   S
    N496   O498      1.07445      .   S
    Zr64   O498      1.82036      .   S
    N496   O499      1.07448      .   S
    Zr51   O499      1.82041      .   S
    N500   O501      1.07448      .   S
    Zr77   O501      1.82042      .   S
    N500   O502      1.07435      .   S
    Zr95   O502      1.82427      .   S
    N500   O503      1.07450      .   S
    Zr63   O503      1.82045      .   S
    N504   O505      1.07437      .   S
    Zr55   O505      1.82002      .   S
    N504   O506      1.07442      .   S
    Zr87   O506      1.82430      .   S
    N504   O507      1.07451      .   S
    Zr68   O507      1.82045      .   S
    N508   O509      1.07442      .   S
    Zr86   O509      1.82431      .   S
    N508   O510      1.07450  1_455   S
    Zr69   O510      1.82045      .   S
    N508   O511      1.07436      .   S
    Zr54   O511      1.82002      .   S
