# CIF file generated by openbabel 2.4.90, see http://openbabel.sf.net
data_I
_chemical_name_common ''
_cell_length_a 6.3285
_cell_length_b 13.6015
_cell_length_c 14.666
_cell_angle_alpha 90.018
_cell_angle_beta 90.088
_cell_angle_gamma 95.761
_space_group_name_H-M_alt 'P 1'
_space_group_name_Hall 'P 1'
loop_
    _symmetry_equiv_pos_as_xyz
    x,y,z
loop_
    _atom_site_label
    _atom_site_type_symbol
    _atom_site_fract_x
    _atom_site_fract_y
    _atom_site_fract_z
    _atom_site_occupancy
    Zr0     Zr   0.22051   0.44951   0.05484   1.000
    Zr1     Zr   0.27127   0.05138   0.55437   1.000
    Zr2     Zr   0.77081   0.55094   0.94481   1.000
    Zr3     Zr   0.72093   0.94932   0.44457   1.000
    N4      N    0.49933   0.24064   0.22957   1.000
    O5      O    0.59286   0.36776   0.11549   1.000
    O6      O    0.43520   0.15787   0.36009   1.000
    N7      N    0.49275   0.75959   0.76978   1.000
    O8      O    0.39882   0.63263   0.88405   1.000
    O9      O    0.55821   0.84239   0.63920   1.000
    N10     N    0.99273   0.25997   0.72952   1.000
    O11     O    0.89899   0.13277   0.61534   1.000
    O12     O    0.05693   0.34289   0.86017   1.000
    N13     N    0.99907   0.74041   0.26997   1.000
    O14     O    0.09286   0.86778   0.38395   1.000
    O15     O    0.93497   0.65758   0.13931   1.000
    O16     O    0.41019   0.86986   0.67765   1.000
    O17     O    0.12546   0.16509   0.65121   1.000
    O18     O    0.08234   0.63023   0.17823   1.000
    O19     O    0.36643   0.33555   0.15139   1.000
    O20     O    0.62525   0.66481   0.84814   1.000
    O21     O    0.90939   0.37016   0.82133   1.000
    O22     O    0.86638   0.83539   0.34815   1.000
    O23     O    0.58259   0.13033   0.32129   1.000
loop_
    _geom_bond_atom_site_label_1
    _geom_bond_atom_site_label_2
    _geom_bond_distance
    _geom_bond_site_symmetry_2
    _ccdc_geom_bond_type
    N4     O5        2.43698      .   S
    Zr2    O5        3.63195  1_556   S
    N4     O6        2.23787      .   S
    Zr1    O6        3.31701      .   S
    N7     O8        2.43781      .   S
    Zr0    O8        3.63315  1_554   S
    N7     O9        2.24000      .   S
    Zr3    O9        3.32188      .   S
    N10    O11       2.43690      .   S
    Zr3    O11       3.63197  1_565   S
    N10    O12       2.23901  1_655   S
    Zr0    O12       3.31855  1_554   S
    N13    O14       2.43649  1_655   S
    Zr1    O14       3.63027  1_545   S
    N13    O15       2.23837      .   S
    Zr2    O15       3.31763  1_556   S
    Zr1    O16       3.25135  1_545   S
    N7     O16       2.12243      .   S
    Zr1    O17       2.35579      .   S
    N10    O17       1.97730  1_655   S
    Zr0    O18       3.24269      .   S
    N13    O18       2.11978  1_655   S
    Zr0    O19       2.35475      .   S
    N4     O19       1.97600      .   S
    Zr2    O20       2.35402      .   S
    N7     O20       1.97500      .   S
    Zr2    O21       3.24489      .   S
    N10    O21       2.12068      .   S
    Zr3    O22       2.35314      .   S
    N13    O22       1.97692      .   S
    Zr3    O23       3.24462  1_565   S
    N4     O23       2.12032      .   S
