# CIF file generated by openbabel 2.4.90, see http://openbabel.sf.net
data_I
_chemical_name_common ''
_cell_length_a 17.675
_cell_length_b 17.661
_cell_length_c 17.684
_cell_angle_alpha 90.659
_cell_angle_beta 119.543
_cell_angle_gamma 119.714
_space_group_name_H-M_alt 'P 1'
_space_group_name_Hall 'P 1'
loop_
    _symmetry_equiv_pos_as_xyz
    x,y,z
loop_
    _atom_site_label
    _atom_site_type_symbol
    _atom_site_fract_x
    _atom_site_fract_y
    _atom_site_fract_z
    _atom_site_occupancy
    Zn0     Zn   0.46800   0.24795   0.43690   1.000
    Zn1     Zn   0.68789   0.21961   0.75156   1.000
    Zn2     Zn   0.81187   0.56342   0.53162   1.000
    Zn3     Zn   0.31214   0.78035   0.24843   1.000
    Zn4     Zn   0.18816   0.43655   0.46836   1.000
    Zn5     Zn   0.96837   0.53124   0.22019   1.000
    Zn6     Zn   0.53203   0.75201   0.56302   1.000
    Zn7     Zn   0.03166   0.46871   0.77980   1.000
    C8      C    0.86024   0.39863   0.81551   1.000
    C9      C    0.18647   0.66568   0.88601   1.000
    C10     C    0.63977   0.45531   0.53845   1.000
    C11     C    0.31337   0.19965   0.47902   1.000
    O12     O    0.87549   0.36204   0.76775   1.000
    C13     C    0.58266   0.18401   0.54480   1.000
    C14     C    0.77908   0.11405   0.79994   1.000
    C15     C    0.91696   0.46168   0.60128   1.000
    C16     C    0.72120   0.52093   0.33513   1.000
    C17     C    0.41735   0.81592   0.45510   1.000
    C18     C    0.22096   0.88591   0.20004   1.000
    C19     C    0.08308   0.53829   0.39871   1.000
    C20     C    0.27884   0.47903   0.66485   1.000
    C21     C    0.13980   0.60132   0.18448   1.000
    C22     C    0.81356   0.33428   0.11397   1.000
    C23     C    0.36027   0.54465   0.46155   1.000
    C24     C    0.68666   0.80031   0.52090   1.000
    O25     O    0.78286   0.35548   0.82375   1.000
    O26     O    0.17235   0.60237   0.83261   1.000
    O27     O    0.26079   0.74977   0.92238   1.000
    O28     O    0.62443   0.39213   0.48668   1.000
    O29     O    0.71713   0.54100   0.57255   1.000
    O30     O    0.32727   0.16025   0.42973   1.000
    O31     O    0.23916   0.16174   0.48883   1.000
    O32     O    0.59359   0.23160   0.60784   1.000
    O33     O    0.53141   0.17573   0.45947   1.000
    O34     O    0.76852   0.16688   0.83910   1.000
    O35     O    0.82727   0.07823   0.83780   1.000
    O36     O    0.90581   0.51361   0.63782   1.000
    O37     O    0.96831   0.42755   0.64431   1.000
    O38     O    0.73142   0.57048   0.39830   1.000
    O39     O    0.67336   0.51093   0.25124   1.000
    O40     O    0.40643   0.76834   0.39214   1.000
    O41     O    0.46862   0.82422   0.54052   1.000
    O42     O    0.23151   0.83308   0.16085   1.000
    O43     O    0.17277   0.92173   0.16213   1.000
    O44     O    0.09423   0.48636   0.36217   1.000
    O45     O    0.03172   0.57241   0.35568   1.000
    O46     O    0.26861   0.42948   0.60160   1.000
    O47     O    0.32666   0.48902   0.74874   1.000
    O48     O    0.12454   0.63791   0.23223   1.000
    O49     O    0.21716   0.64448   0.17623   1.000
    O50     O    0.82769   0.39758   0.16740   1.000
    O51     O    0.73925   0.25018   0.07761   1.000
    O52     O    0.37561   0.60783   0.51332   1.000
    O53     O    0.28290   0.45896   0.42743   1.000
    O54     O    0.67276   0.83972   0.57027   1.000
    O55     O    0.76088   0.83823   0.51116   1.000
    Ts56    Ts   0.45130   0.24338   0.39219   1.000
    Ts57    Ts   0.47132   0.27829   0.46424   1.000
    Ts58    Ts   0.64775   0.20744   0.75626   1.000
    Ts59    Ts   0.68512   0.19270   0.72136   1.000
    Ts60    Ts   0.85210   0.60828   0.55965   1.000
    Ts61    Ts   0.81470   0.53598   0.50754   1.000
    Ts62    Ts   0.35228   0.79251   0.24373   1.000
    Ts63    Ts   0.31492   0.80726   0.27863   1.000
    Ts64    Ts   0.14793   0.39168   0.44033   1.000
    Ts65    Ts   0.18533   0.46398   0.49244   1.000
    Ts66    Ts   0.97159   0.50715   0.19317   1.000
    Ts67    Ts   0.95157   0.55924   0.20799   1.000
    Ts68    Ts   0.54874   0.75658   0.60776   1.000
    Ts69    Ts   0.52871   0.72168   0.53568   1.000
    Ts70    Ts   0.04846   0.44072   0.79200   1.000
    Ts71    Ts   0.02844   0.49280   0.80682   1.000
    Og72    Og   0.88691   0.43281   0.83329   1.000
    Og73    Og   0.15785   0.65436   0.89195   1.000
    Og74    Og   0.61314   0.44646   0.54595   1.000
    Og75    Og   0.34204   0.23424   0.49635   1.000
    Og76    Og   0.59912   0.16634   0.55367   1.000
    Og77    Og   0.76191   0.10812   0.76546   1.000
    Og78    Og   0.90058   0.45412   0.56719   1.000
    Og79    Og   0.73835   0.50358   0.34638   1.000
    Og80    Og   0.40090   0.83360   0.44625   1.000
    Og81    Og   0.23814   0.89184   0.23452   1.000
    Og82    Og   0.09946   0.54585   0.43280   1.000
    Og83    Og   0.26169   0.49638   0.65360   1.000
    Og84    Og   0.11312   0.56715   0.16670   1.000
    Og85    Og   0.84217   0.34559   0.10803   1.000
    Og86    Og   0.38690   0.55350   0.45405   1.000
    Og87    Og   0.65799   0.76573   0.50360   1.000
loop_
    _geom_bond_atom_site_label_1
    _geom_bond_atom_site_label_2
    _geom_bond_distance
    _geom_bond_site_symmetry_2
    _ccdc_geom_bond_type
    O51    C22       1.24729      .   S
    C22    O50       1.29275      .   S
    O42    C18       1.29262      .   S
    O42    Zn3       2.11401      .   S
    O43    C18       1.24739      .   S
    O50    Zn5       2.11383      .   S
    O49    C21       1.27986      .   S
    O49    Zn3       2.00724      .   S
    C21    O48       1.26031      .   S
    Zn5    O45       2.00758  1_655   S
    O39    C16       1.24734      .   S
    C16    O38       1.29149      .   S
    O45    C19       1.27977      .   S
    O44    C19       1.26042      .   S
    O40    C17       1.26049      .   S
    O38    Zn2       2.11484      .   S
    O53    C23       1.27982      .   S
    O53    Zn4       2.00733      .   S
    O30    Zn0       2.11354      .   S
    O30    C11       1.29279      .   S
    Zn0    O33       2.00737      .   S
    C17    O41       1.27979      .   S
    O33    C13       1.27851      .   S
    C23    O52       1.26036      .   S
    Zn4    O46       2.11377      .   S
    C11    O31       1.24721      .   S
    O28    C10       1.26041      .   S
    O55    C24       1.24636      .   S
    C24    O54       1.29389      .   S
    Zn2    O29       2.00733      .   S
    C10    O29       1.27982      .   S
    O41    Zn6       2.00743      .   S
    C13    O32       1.26159      .   S
    Zn6    O54       2.11280      .   S
    C15    O36       1.26040      .   S
    C15    O37       1.27978      .   S
    O46    C20       1.29257      .   S
    O37    Zn7       2.00757  1_655   S
    C20    O47       1.24739      .   S
    Zn1    O25       2.00723      .   S
    Zn1    O34       2.11375      .   S
    O12    C8        1.26032      .   S
    Zn7    O26       2.11381      .   S
    C14    O35       1.24720      .   S
    C14    O34       1.29232      .   S
    C8     O25       1.27990      .   S
    O26    C9        1.29267      .   S
    C9     O27       1.24730      .   S
    Zn0    Ts56      0.68083      .   S
    Zn0    Ts57      0.67761      .   S
    Zn1    Ts58      0.68111      .   S
    Zn1    Ts59      0.67721      .   S
    Zn2    Ts60      0.68119      .   S
    Zn2    Ts61      0.67733      .   S
    Zn3    Ts62      0.68109      .   S
    Zn3    Ts63      0.67721      .   S
    Zn4    Ts64      0.68119      .   S
    Zn4    Ts65      0.67734      .   S
    Zn5    Ts66      0.67731      .   S
    Zn5    Ts67      0.68119      .   S
    Zn6    Ts68      0.68127      .   S
    Zn6    Ts69      0.67757      .   S
    Zn7    Ts70      0.68117      .   S
    Zn7    Ts71      0.67729      .   S
    C8     Og72      0.50273      .   S
    C9     Og73      0.50935      .   S
    C10    Og74      0.50267      .   S
    C11    Og75      0.50936      .   S
    C13    Og76      0.50273      .   S
    C14    Og77      0.50931      .   S
    C15    Og78      0.50273      .   S
    C16    Og79      0.50935      .   S
    C17    Og80      0.50272      .   S
    C18    Og81      0.50934      .   S
    C19    Og82      0.50274      .   S
    C20    Og83      0.50935      .   S
    C21    Og84      0.50273      .   S
    C22    Og85      0.50934      .   S
    C23    Og86      0.50268      .   S
    C24    Og87      0.50931      .   S
