# CIF file generated by openbabel 2.4.90, see http://openbabel.sf.net
data_I
_chemical_name_common ''
_cell_length_a 17.675
_cell_length_b 17.661
_cell_length_c 17.684
_cell_angle_alpha 90.659
_cell_angle_beta 119.543
_cell_angle_gamma 119.714
_space_group_name_H-M_alt 'P 1'
_space_group_name_Hall 'P 1'
loop_
    _symmetry_equiv_pos_as_xyz
    x,y,z
loop_
    _atom_site_label
    _atom_site_type_symbol
    _atom_site_fract_x
    _atom_site_fract_y
    _atom_site_fract_z
    _atom_site_occupancy
    C0      C    0.86024   0.39863   0.81551   1.000
    C1      C    0.18647   0.66568   0.88601   1.000
    C2      C    0.63977   0.45531   0.53845   1.000
    C3      C    0.31337   0.19965   0.47902   1.000
    C4      C    0.58266   0.18401   0.54480   1.000
    C5      C    0.77908   0.11405   0.79994   1.000
    C6      C    0.91696   0.46168   0.60128   1.000
    C7      C    0.72120   0.52093   0.33513   1.000
    C8      C    0.41735   0.81592   0.45510   1.000
    C9      C    0.22096   0.88591   0.20004   1.000
    C10     C    0.08308   0.53829   0.39871   1.000
    C11     C    0.27884   0.47903   0.66485   1.000
    C12     C    0.13980   0.60132   0.18448   1.000
    C13     C    0.81356   0.33428   0.11397   1.000
    C14     C    0.36027   0.54465   0.46155   1.000
    C15     C    0.68666   0.80031   0.52090   1.000
