# CIF file generated by openbabel 2.4.90, see http://openbabel.sf.net
data_I
_chemical_name_common ''
_cell_length_a 17.675
_cell_length_b 17.661
_cell_length_c 17.684
_cell_angle_alpha 90.659
_cell_angle_beta 119.543
_cell_angle_gamma 119.714
_space_group_name_H-M_alt 'P 1'
_space_group_name_Hall 'P 1'
loop_
    _symmetry_equiv_pos_as_xyz
    x,y,z
loop_
    _atom_site_label
    _atom_site_type_symbol
    _atom_site_fract_x
    _atom_site_fract_y
    _atom_site_fract_z
    _atom_site_occupancy
    N0      N    0.74965   0.87463   0.12445   1.000
    N1      N    0.32106   0.93549   0.41818   1.000
    N2      N    0.48255   0.41846   0.59700   1.000
    N3      N    0.17877   0.59728   0.61426   1.000
    N4      N    0.25021   0.12534   0.87554   1.000
    N5      N    0.82126   0.40267   0.38572   1.000
    N6      N    0.01774   0.61469   0.93589   1.000
    N7      N    0.67898   0.06447   0.58180   1.000
    N8      N    0.98229   0.38526   0.06409   1.000
    N9      N    0.51749   0.58151   0.40297   1.000
    Zr10    Zr   0.06319   0.55563   0.75774   1.000
    O11     O    0.96001   0.49106   0.61284   1.000
    O12     O    0.10836   0.41583   0.79728   1.000
    Zr13    Zr   0.70274   0.50774   0.44485   1.000
    O14     O    0.62196   0.46899   0.50910   1.000
    O15     O    0.88198   0.69288   0.58473   1.000
    Zr16    Zr   0.43649   0.19442   0.49237   1.000
    O17     O    0.53983   0.15271   0.53116   1.000
    O18     O    0.39154   0.18882   0.30753   1.000
    Zr19    Zr   0.79734   0.24213   0.80506   1.000
    O20     O    0.61814   0.20274   0.81107   1.000
    O21     O    0.87816   0.38721   0.84705   1.000
    Zr22    Zr   0.29729   0.49222   0.55512   1.000
    O23     O    0.37807   0.53097   0.49088   1.000
    O24     O    0.11801   0.30708   0.41525   1.000
    Zr25    Zr   0.93684   0.44433   0.24225   1.000
    O26     O    0.04003   0.50889   0.38715   1.000
    O27     O    0.89163   0.58413   0.20271   1.000
    Zr28    Zr   0.20270   0.75782   0.19491   1.000
    O29     O    0.12187   0.61274   0.15293   1.000
    O30     O    0.38185   0.79722   0.18891   1.000
    Zr31    Zr   0.56353   0.80554   0.50759   1.000
    O32     O    0.60845   0.81114   0.69244   1.000
    O33     O    0.46020   0.84725   0.46880   1.000
    O34     O    0.55748   0.73001   0.48166   1.000
    O35     O    0.75206   0.48168   0.42480   1.000
    O36     O    0.24797   0.51827   0.57518   1.000
    O37     O    0.74804   0.17273   0.72979   1.000
    O38     O    0.25199   0.82722   0.27019   1.000
    O39     O    0.44255   0.26995   0.51830   1.000
    O40     O    0.05733   0.57568   0.82725   1.000
    O41     O    0.94270   0.42428   0.17274   1.000
loop_
    _geom_bond_atom_site_label_1
    _geom_bond_atom_site_label_2
    _geom_bond_distance
    _geom_bond_site_symmetry_2
    _ccdc_geom_bond_type
    Zr10   O11       2.11072  1_455   S
    N5     O11       3.30596      .   S
    Zr10   O12       2.94376      .   S
    N4     O12       6.63434      .   S
    Zr13   O14       2.10869      .   S
    N2     O14       3.30359      .   S
    Zr13   O15       2.94337      .   S
    N4     O15       6.62948  1_445   S
    Zr16   O17       2.11169      .   S
    N7     O17       3.30736      .   S
    Zr16   O18       2.94603      .   S
    N4     O18       6.63812  1_556   S
    Zr19   O20       2.94552      .   S
    N4     O20       6.63279      .   S
    Zr19   O21       2.10685      .   S
    N6     O21       3.30186  1_455   S
    Zr22   O23       2.10866      .   S
    N9     O23       3.30373      .   S
    Zr22   O24       2.94341      .   S
    N0     O24       6.62950  1_665   S
    Zr25   O26       2.11069  1_655   S
    N3     O26       3.30587      .   S
    Zr25   O27       2.94422      .   S
    N0     O27       6.63595      .   S
    Zr28   O29       2.10687      .   S
    N8     O29       3.30186  1_655   S
    Zr28   O30       2.94467      .   S
    N0     O30       6.63046      .   S
    Zr31   O32       2.94636      .   S
    N0     O32       6.63908  1_554   S
    Zr31   O33       2.11166      .   S
    N1     O33       3.30735      .   S
    Zr31   O34       1.34043      .   S
    N9     O34       2.53438      .   S
    Zr13   O35       1.34032      .   S
    N5     O35       2.53438      .   S
    Zr22   O36       1.34039      .   S
    N3     O36       2.53443      .   S
    Zr19   O37       1.33911      .   S
    N7     O37       2.53289      .   S
    Zr28   O38       1.33920      .   S
    N1     O38       2.53295      .   S
    Zr16   O39       1.34046      .   S
    N2     O39       2.53451      .   S
    Zr10   O40       1.34127      .   S
    N6     O40       2.53540      .   S
    N8     O41       2.53552      .   S
    Zr25   O41       1.34133      .   S
