# CIF file generated by openbabel 2.4.90, see http://openbabel.sf.net
data_I
_chemical_name_common ''
_cell_length_a 17.675
_cell_length_b 17.661
_cell_length_c 17.684
_cell_angle_alpha 90.659
_cell_angle_beta 119.543
_cell_angle_gamma 119.714
_space_group_name_H-M_alt 'P 1'
_space_group_name_Hall 'P 1'
loop_
    _symmetry_equiv_pos_as_xyz
    x,y,z
loop_
    _atom_site_label
    _atom_site_type_symbol
    _atom_site_fract_x
    _atom_site_fract_y
    _atom_site_fract_z
    _atom_site_occupancy
    N0      N    0.74965   0.87463   0.12445   1.000
    N1      N    0.32106   0.93549   0.41818   1.000
    N2      N    0.48255   0.41846   0.59700   1.000
    N3      N    0.17877   0.59728   0.61426   1.000
    N4      N    0.25021   0.12534   0.87554   1.000
    N5      N    0.82126   0.40267   0.38572   1.000
    N6      N    0.01774   0.61469   0.93589   1.000
    N7      N    0.67898   0.06447   0.58180   1.000
    N8      N    0.98229   0.38526   0.06409   1.000
    N9      N    0.51749   0.58151   0.40297   1.000
    Zr10    Zr   0.06319   0.55563   0.75774   1.000
    O11     O    0.07192   0.59366   0.83658   1.000
    O12     O    0.96001   0.49106   0.61284   1.000
    O13     O    0.10836   0.41583   0.79728   1.000
    O14     O    0.04274   0.55770   0.81793   1.000
    Zr15    Zr   0.70274   0.50774   0.44485   1.000
    O16     O    0.62196   0.46899   0.50910   1.000
    O17     O    0.74342   0.47826   0.40686   1.000
    O18     O    0.88198   0.69288   0.58473   1.000
    O19     O    0.76071   0.48510   0.44273   1.000
    Zr20    Zr   0.43649   0.19442   0.49237   1.000
    O21     O    0.53983   0.15271   0.53116   1.000
    O22     O    0.42798   0.26471   0.52169   1.000
    O23     O    0.39154   0.18882   0.30753   1.000
    O24     O    0.45713   0.27519   0.51491   1.000
    Zr25    Zr   0.79734   0.24213   0.80506   1.000
    O26     O    0.61814   0.20274   0.81107   1.000
    O27     O    0.73934   0.18200   0.72454   1.000
    O28     O    0.75674   0.16347   0.73503   1.000
    O29     O    0.87816   0.38721   0.84705   1.000
    Zr30    Zr   0.29729   0.49222   0.55512   1.000
    O31     O    0.37807   0.53097   0.49088   1.000
    O32     O    0.25662   0.52169   0.59312   1.000
    O33     O    0.11801   0.30708   0.41525   1.000
    O34     O    0.23932   0.51485   0.55725   1.000
    Zr35    Zr   0.93684   0.44433   0.24225   1.000
    O36     O    0.04003   0.50889   0.38715   1.000
    O37     O    0.92811   0.40629   0.16341   1.000
    O38     O    0.95730   0.44226   0.18206   1.000
    O39     O    0.89163   0.58413   0.20271   1.000
    Zr40    Zr   0.20270   0.75782   0.19491   1.000
    O41     O    0.12187   0.61274   0.15293   1.000
    O42     O    0.24329   0.83649   0.26494   1.000
    O43     O    0.38185   0.79722   0.18891   1.000
    O44     O    0.26069   0.81796   0.27543   1.000
    Zr45    Zr   0.56353   0.80554   0.50759   1.000
    O46     O    0.57205   0.73526   0.47827   1.000
    O47     O    0.54290   0.72477   0.48504   1.000
    O48     O    0.60845   0.81114   0.69244   1.000
    O49     O    0.46020   0.84725   0.46880   1.000
loop_
    _geom_bond_atom_site_label_1
    _geom_bond_atom_site_label_2
    _geom_bond_distance
    _geom_bond_site_symmetry_2
    _ccdc_geom_bond_type
    Zr10   O11       1.44296      .   S
    N6     O11       2.47698      .   S
    Zr10   O12       2.11072  1_455   S
    N5     O12       3.30596      .   S
    Zr10   O13       2.94376      .   S
    N4     O13       6.63434      .   S
    Zr10   O14       1.28697      .   S
    N6     O14       2.61946      .   S
    Zr15   O16       2.10869      .   S
    N2     O16       3.30359      .   S
    Zr15   O17       1.44174      .   S
    N5     O17       2.47613      .   S
    Zr15   O18       2.94337      .   S
    N4     O18       6.62948  1_445   S
    Zr15   O19       1.28637      .   S
    N5     O19       2.61827      .   S
    Zr20   O21       2.11169      .   S
    N7     O21       3.30736      .   S
    Zr20   O22       1.44210      .   S
    N2     O22       2.47612      .   S
    Zr20   O23       2.94603      .   S
    N4     O23       6.63812  1_556   S
    Zr20   O24       1.28626      .   S
    N2     O24       2.61855      .   S
    Zr25   O26       2.94552      .   S
    N4     O26       6.63279      .   S
    Zr25   O27       1.28555      .   S
    N7     O27       2.61660      .   S
    Zr25   O28       1.44021      .   S
    N7     O28       2.47485      .   S
    Zr25   O29       2.10685      .   S
    N6     O29       3.30186  1_455   S
    Zr30   O31       2.10866      .   S
    N9     O31       3.30373      .   S
    Zr30   O32       1.44180      .   S
    N3     O32       2.47620      .   S
    Zr30   O33       2.94341      .   S
    N0     O33       6.62950  1_665   S
    Zr30   O34       1.28645      .   S
    N3     O34       2.61831      .   S
    Zr35   O36       2.11069  1_655   S
    N3     O36       3.30587      .   S
    Zr35   O37       1.44303      .   S
    N8     O37       2.47709      .   S
    Zr35   O38       1.28703      .   S
    N8     O38       2.61957      .   S
    Zr35   O39       2.94422      .   S
    N0     O39       6.63595      .   S
    Zr40   O41       2.10687      .   S
    N8     O41       3.30186  1_655   S
    Zr40   O42       1.44029      .   S
    N1     O42       2.47492      .   S
    Zr40   O43       2.94467      .   S
    N0     O43       6.63046      .   S
    Zr40   O44       1.28566      .   S
    N1     O44       2.61665      .   S
    Zr45   O46       1.44206      .   S
    N9     O46       2.47602      .   S
    Zr45   O47       1.28624      .   S
    N9     O47       2.61837      .   S
    Zr45   O48       2.94636      .   S
    N0     O48       6.63908  1_554   S
    Zr45   O49       2.11166      .   S
    N1     O49       3.30735      .   S
