# CIF file generated by openbabel 2.4.90, see http://openbabel.sf.net
data_I
_chemical_name_common ''
_cell_length_a 17.224
_cell_length_b 17.234
_cell_length_c 17.292
_cell_angle_alpha 90.548
_cell_angle_beta 90
_cell_angle_gamma 90
_space_group_name_H-M_alt 'P 1'
_space_group_name_Hall 'P 1'
loop_
    _symmetry_equiv_pos_as_xyz
    x,y,z
loop_
    _atom_site_label
    _atom_site_type_symbol
    _atom_site_fract_x
    _atom_site_fract_y
    _atom_site_fract_z
    _atom_site_occupancy
    H0      H    0.70916   0.99440   0.98121   1.000
    H1      H    0.75120   0.75455   0.11066   1.000
    H2      H    0.67883   0.68768   0.20395   1.000
    H3      H    0.55904   0.72057   0.25886   1.000
    H4      H    0.48043   0.82847   0.23398   1.000
    H5      H    0.50025   0.92892   0.14560   1.000
    H6      H    0.67187   0.22722   0.78715   1.000
    H7      H    0.57428   0.33746   0.54578   1.000
    H8      H    0.45323   0.38706   0.50630   1.000
    H9      H    0.33741   0.39488   0.57616   1.000
    H10     H    0.31283   0.35934   0.70398   1.000
    H11     H    0.39880   0.30747   0.79568   1.000
    H12     H    0.71424   0.27999   0.27550   1.000
    H13     H    0.94936   0.12509   0.31716   1.000
    H14     H    0.00000   0.03222   0.24250   1.000
    H15     H    0.98771   0.00000   0.11918   1.000
    H16     H    0.88053   0.01332   0.04019   1.000
    H17     H    0.78024   0.10275   0.06213   1.000
    H18     H    0.40584   0.00000   0.27658   1.000
    H19     H    0.56402   0.95505   0.50746   1.000
    H20     H    0.65915   0.00933   0.57303   1.000
    H21     H    0.70848   0.13215   0.54439   1.000
    H22     H    0.67561   0.21403   0.44224   1.000
    H23     H    0.58325   0.19526   0.34430   1.000
    H24     H    0.46139   0.48622   0.23619   1.000
    H25     H    0.37723   0.47154   0.98057   1.000
    H26     H    0.32435   0.56188   0.89431   1.000
    H27     H    0.28857   0.69067   0.91730   1.000
    H28     H    0.29597   0.76307   0.00000   1.000
    H29     H    0.34633   0.72565   0.13759   1.000
    H30     H    0.66476   0.52748   0.48223   1.000
    H31     H    0.88061   0.59608   0.65452   1.000
    H32     H    0.90459   0.69927   0.74080   1.000
    H33     H    0.82803   0.80876   0.76678   1.000
    H34     H    0.70634   0.84072   0.71612   1.000
    H35     H    0.63051   0.77221   0.62549   1.000
    H36     H    0.20027   0.02293   0.03417   1.000
    H37     H    0.24154   0.26252   0.90438   1.000
    H38     H    0.16932   0.32923   0.81085   1.000
    H39     H    0.04967   0.29623   0.75573   1.000
    H40     H    0.98775   0.18829   0.78062   1.000
    H41     H    0.00000   0.08814   0.86920   1.000
    H42     H    0.16434   0.79039   0.22820   1.000
    H43     H    0.06650   0.68035   0.46962   1.000
    H44     H    0.96212   0.63079   0.50891   1.000
    H45     H    0.84638   0.62289   0.43902   1.000
    H46     H    0.82193   0.65836   0.31114   1.000
    H47     H    0.90801   0.71022   0.21952   1.000
    H48     H    0.20692   0.73688   0.74097   1.000
    H49     H    0.44067   0.89328   0.69748   1.000
    H50     H    0.50783   0.98656   0.77145   1.000
    H51     H    0.47829   0.01701   0.89528   1.000
    H52     H    0.37374   0.00000   0.97514   1.000
    H53     H    0.27357   0.91468   0.95388   1.000
    H54     H    0.91345   0.01590   0.73914   1.000
    H55     H    0.05480   0.06221   0.50800   1.000
    H56     H    0.15160   0.00000   0.44251   1.000
    H57     H    0.20109   0.88518   0.47122   1.000
    H58     H    0.16839   0.80334   0.57346   1.000
    H59     H    0.07602   0.82204   0.67140   1.000
    H60     H    0.97136   0.52955   0.77951   1.000
    H61     H    0.88752   0.54624   0.03470   1.000
    H62     H    0.83242   0.45714   0.12091   1.000
    H63     H    0.79482   0.32876   0.09805   1.000
    H64     H    0.80202   0.25582   0.98375   1.000
    H65     H    0.85207   0.29219   0.87822   1.000
    H66     H    0.15613   0.49017   0.53331   1.000
    H67     H    0.37194   0.42114   0.36109   1.000
    H68     H    0.39573   0.31781   0.27493   1.000
    H69     H    0.31900   0.20845   0.24901   1.000
    H70     H    0.19725   0.17670   0.29968   1.000
    H71     H    0.12158   0.24541   0.39030   1.000
    C72     C    0.61533   0.96112   0.04562   1.000
    C73     C    0.68749   0.95394   0.00809   1.000
    C74     C    0.72661   0.88705   0.03301   1.000
    C75     C    0.67831   0.84926   0.08870   1.000
    C76     C    0.60760   0.89727   0.09759   1.000
    C77     C    0.69589   0.78059   0.12725   1.000
    C78     C    0.65271   0.74124   0.18280   1.000
    C79     C    0.58104   0.76074   0.21555   1.000
    C80     C    0.53384   0.82469   0.20028   1.000
    C81     C    0.54549   0.88473   0.14786   1.000
    C82     C    0.98575   0.03429   0.63514   1.000
    C83     C    0.02680   0.00000   0.59773   1.000
    C84     C    0.03208   0.93159   0.64290   1.000
    C85     C    0.06859   0.00546   0.53194   1.000
    C86     C    0.54961   0.26631   0.78916   1.000
    C87     C    0.62293   0.25195   0.75650   1.000
    C88     C    0.62467   0.27583   0.67906   1.000
    C89     C    0.54973   0.30612   0.66010   1.000
    C90     C    0.50122   0.29907   0.73051   1.000
    C91     C    0.52792   0.33645   0.58875   1.000
    C92     C    0.45599   0.36564   0.56555   1.000
    C93     C    0.38685   0.37094   0.60750   1.000
    C94     C    0.37227   0.34983   0.68395   1.000
    C95     C    0.42295   0.31869   0.73855   1.000
    C96     C    0.74753   0.20087   0.17980   1.000
    C97     C    0.75424   0.23680   0.25283   1.000
    C98     C    0.81984   0.20897   0.29206   1.000
    C99     C    0.85738   0.15294   0.24293   1.000
    C100    C    0.81071   0.14731   0.17127   1.000
    C101    C    0.92475   0.11151   0.26053   1.000
    C102    C    0.96427   0.05622   0.21600   1.000
    C103    C    0.94636   0.02683   0.14253   1.000
    C104    C    0.88360   0.04517   0.09490   1.000
    C105    C    0.82370   0.09837   0.10775   1.000
    C106    C    0.48478   0.07851   0.31050   1.000
    C107    C    0.44867   0.00564   0.31632   1.000
    C108    C    0.47810   0.98299   0.38064   1.000
    C109    C    0.53411   0.01348   0.41800   1.000
    C110    C    0.53935   0.08568   0.37274   1.000
    C111    C    0.57774   0.00000   0.48374   1.000
    C112    C    0.63389   0.03716   0.52240   1.000
    C113    C    0.66355   0.11045   0.50518   1.000
    C114    C    0.64359   0.15958   0.44461   1.000
    C115    C    0.58867   0.14863   0.38610   1.000
    C116    C    0.42032   0.48111   0.11490   1.000
    C117    C    0.43504   0.51553   0.18753   1.000
    C118    C    0.40973   0.59306   0.18876   1.000
    C119    C    0.38627   0.53894   0.06649   1.000
    C120    C    0.36567   0.52929   0.00000   1.000
    C121    C    0.33398   0.58314   0.95325   1.000
    C122    C    0.31261   0.66022   0.96701   1.000
    C123    C    0.31773   0.70369   0.00000   1.000
    C124    C    0.34759   0.68166   0.09182   1.000
    C125    C    0.37856   0.61038   0.11413   1.000
    C126    C    0.65183   0.63768   0.54757   1.000
    C127    C    0.68906   0.56930   0.52284   1.000
    C128    C    0.76205   0.56225   0.55853   1.000
    C129    C    0.77242   0.62783   0.60908   1.000
    C130    C    0.70204   0.67649   0.60158   1.000
    C131    C    0.83615   0.64109   0.65739   1.000
    C132    C    0.85023   0.70264   0.70862   1.000
    C133    C    0.80416   0.76754   0.72466   1.000
    C134    C    0.73159   0.78670   0.69414   1.000
    C135    C    0.68632   0.74633   0.64015   1.000
    C136    C    0.10546   0.05613   0.96900   1.000
    C137    C    0.17759   0.06333   0.00000   1.000
    C138    C    0.21679   0.13012   0.98218   1.000
    C139    C    0.16860   0.16784   0.92636   1.000
    C140    C    0.09786   0.11987   0.91748   1.000
    C141    C    0.18625   0.23645   0.88773   1.000
    C142    C    0.14317   0.27571   0.83199   1.000
    C143    C    0.07158   0.25613   0.79916   1.000
    C144    C    0.02435   0.19221   0.81446   1.000
    C145    C    0.03586   0.13230   0.86705   1.000
    C146    C    0.04206   0.75134   0.22618   1.000
    C147    C    0.11538   0.76570   0.25886   1.000
    C148    C    0.11706   0.74187   0.33632   1.000
    C149    C    0.04208   0.71163   0.35523   1.000
    C150    C    0.00000   0.71864   0.28481   1.000
    C151    C    0.02019   0.68133   0.42660   1.000
    C152    C    0.96495   0.65216   0.44973   1.000
    C153    C    0.89585   0.64683   0.40772   1.000
    C154    C    0.88135   0.66789   0.33124   1.000
    C155    C    0.93208   0.69901   0.27669   1.000
    C156    C    0.24035   0.81636   0.83643   1.000
    C157    C    0.24680   0.78036   0.76338   1.000
    C158    C    0.31198   0.80851   0.72367   1.000
    C159    C    0.34951   0.86484   0.77249   1.000
    C160    C    0.30330   0.87031   0.84444   1.000
    C161    C    0.41646   0.90670   0.75430   1.000
    C162    C    0.45605   0.96222   0.79851   1.000
    C163    C    0.43869   0.99138   0.87220   1.000
    C164    C    0.37645   0.97264   0.92032   1.000
    C165    C    0.31663   0.91924   0.90790   1.000
    C166    C    0.99423   0.93863   0.70510   1.000
    C167    C    0.95807   0.00000   0.69940   1.000
    C168    C    0.12644   0.98011   0.49320   1.000
    C169    C    0.15618   0.90687   0.51045   1.000
    C170    C    0.13632   0.85775   0.57108   1.000
    C171    C    0.08142   0.86867   0.62955   1.000
    C172    C    0.93000   0.53549   0.90058   1.000
    C173    C    0.94431   0.50073   0.82809   1.000
    C174    C    0.91754   0.42371   0.82685   1.000
    C175    C    0.89472   0.47840   0.94902   1.000
    C176    C    0.87503   0.48862   0.01123   1.000
    C177    C    0.84209   0.43550   0.06211   1.000
    C178    C    0.81962   0.35870   0.04848   1.000
    C179    C    0.82453   0.31491   0.98025   1.000
    C180    C    0.85384   0.33629   0.92387   1.000
    C181    C    0.88588   0.40705   0.90145   1.000
    C182    C    0.14311   0.37991   0.46800   1.000
    C183    C    0.18039   0.44831   0.49273   1.000
    C184    C    0.25340   0.45528   0.45703   1.000
    C185    C    0.26370   0.38962   0.40650   1.000
    C186    C    0.19328   0.34102   0.41410   1.000
    C187    C    0.32741   0.37620   0.35828   1.000
    C188    C    0.34139   0.31455   0.30714   1.000
    C189    C    0.29521   0.24972   0.29112   1.000
    C190    C    0.22260   0.23069   0.32163   1.000
    C191    C    0.17743   0.27117   0.37559   1.000
loop_
    _geom_bond_atom_site_label_1
    _geom_bond_atom_site_label_2
    _geom_bond_distance
    _geom_bond_site_symmetry_2
    _ccdc_geom_bond_type
    C137   H36       0.99719      .   S
    C137   C136      1.35826  1_554   S
    C137   C138      1.37217  1_554   S
    C123   H28       1.08989      .   S
    C123   C124      1.71492      .   S
    C123   C122      0.94139  1_554   S
    C120   C119      1.21315      .   S
    C120   C121      1.35178  1_554   S
    C120   H25       1.06617  1_554   S
    C73    C74       1.40633      .   S
    C73    C72       1.40698      .   S
    C73    H0        0.92082  1_554   S
    C176   H61       1.09046      .   S
    C176   C177      1.39632      .   S
    C176   C175      1.14001  1_554   S
    C74    C75       1.43370      .   S
    H16    C104      1.09047      .   S
    C72    C76       1.43357      .   S
    C178   C177      1.39679      .   S
    C178   H63       1.09174      .   S
    C178   C179      1.39704  1_554   S
    C177   H62       1.09246      .   S
    H17    C105      1.09061      .   S
    C119   C125      1.48072      .   S
    C119   C116      1.43321      .   S
    C75    C76       1.47959      .   S
    C75    C77       1.39709      .   S
    C124   C125      1.39703      .   S
    C124   H29       1.09096      .   S
    C104   C105      1.39656      .   S
    C104   C103      1.39709      .   S
    C76    C81       1.39648      .   S
    C105   C100      1.39648      .   S
    H1     C77       1.09044      .   S
    C125   C118      1.43186      .   S
    C116   C117      1.40686      .   S
    H15    C103      0.93835      .   S
    C77    C78       1.39579      .   S
    C103   C102      1.39761      .   S
    H5     C81       1.09051      .   S
    C81    C80       1.39669      .   S
    C100   C96       1.43371      .   S
    C100   C99       1.47948      .   S
    C96    C97       1.40587      .   S
    C78    H2        1.09288      .   S
    C78    C79       1.39781      .   S
    C117   C118      1.40536      .   S
    C117   H24       1.08505      .   S
    C80    C79       1.39666      .   S
    C80    H4        1.09061      .   S
    C79    H3        1.09255      .   S
    C102   H14       0.87364  1_655   S
    C102   C101      1.39665      .   S
    H47    C155      1.09093      .   S
    C146   C147      1.40446      .   S
    C146   C150      1.37162      .   S
    H42    C147      1.08511      .   S
    C99    C101      1.39733      .   S
    C99    C98       1.43405      .   S
    H69    C189      1.09269      .   S
    C97    H12       1.08484      .   S
    C97    C98       1.40478      .   S
    C147   C148      1.40503      .   S
    C101   H13       1.09041      .   S
    H68    C188      1.09092      .   S
    H18    C107      1.01218      .   S
    C155   C150      1.22545  1_655   S
    C155   C154      1.39669      .   S
    C150   C149      1.42324      .   S
    C189   C188      1.39711      .   S
    C189   C190      1.39755      .   S
    H70    C190      1.09256      .   S
    C188   C187      1.39664      .   S
    C106   C107      1.40595      .   S
    C106   C110      1.43332      .   S
    H46    C154      1.09271      .   S
    C107   C108      1.28632  1_545   S
    C190   C191      1.39655      .   S
    C154   C153      1.39725      .   S
    C148   C149      1.43164      .   S
    H23    C115      1.08994      .   S
    C149   C151      1.39649      .   S
    C187   H67       1.09082      .   S
    C187   C185      1.39627      .   S
    C110   C115      1.39543      .   S
    C110   C109      1.47898      .   S
    C191   H71       1.09058      .   S
    C191   C186      1.39712      .   S
    C108   C109      1.27188  1_565   S
    C115   C114      1.39655      .   S
    C185   C186      1.48044      .   S
    C185   C184      1.43407      .   S
    C153   H45       1.09236      .   S
    C153   C152      1.39701      .   S
    C186   C182      1.43271      .   S
    C109   C111      1.38425      .   S
    C151   C152      1.14971  1_455   S
    C151   H43       1.09097      .   S
    H22    C114      1.08954      .   S
    H56    C168      1.03884  1_545   S
    C114   C113      1.39615      .   S
    C152   H44       1.09199      .   S
    C184   C183      1.40653      .   S
    C182   C183      1.40524      .   S
    H57    C169      1.09247      .   S
    H30    C127      1.08533      .   S
    C111   H19       0.91120  1_545   S
    C111   C112      1.33570      .   S
    C183   H66       1.08533      .   S
    C168   C169      1.39707      .   S
    C168   C85       1.27550  1_565   S
    C113   C112      1.39713      .   S
    C113   H21       1.09257      .   S
    H8     C92       1.09337      .   S
    H55    C85       1.09178      .   S
    C169   C170      1.39630      .   S
    C112   H20       1.09261      .   S
    C127   C126      1.40459      .   S
    C127   C128      1.40631      .   S
    C85    C83       1.35027      .   S
    H7     C91       1.09100      .   S
    C126   C130      1.43375      .   S
    C128   C129      1.43335      .   S
    C92    C91       1.39730      .   S
    C92    C93       1.39705      .   S
    C170   H58       1.08941      .   S
    C170   C171      1.39575      .   S
    H9     C93       1.09237      .   S
    C91    C89       1.39608      .   S
    C83    C82       1.12260  1_455   S
    C83    C84       1.42335  1_545   S
    C130   C129      1.48039      .   S
    C130   C135      1.39701      .   S
    C93    C94       1.39719      .   S
    C129   C131      1.39696      .   S
    H35    C135      1.09058      .   S
    C171   C84       1.39524      .   S
    C171   H59       1.09043      .   S
    C82    C167      1.35049      .   S
    C135   C134      1.39681      .   S
    C84    C166      1.26254  1_455   S
    H31    C131      1.09077      .   S
    C131   C132      1.39667      .   S
    C89    C88       1.43162      .   S
    C89    C90       1.48258      .   S
    C88    C87       1.40499      .   S
    C94    H10       1.09269      .   S
    C94    C95       1.39680      .   S
    C134   H34       1.09257      .   S
    C134   C133      1.39759      .   S
    H49    C161      1.09012      .   S
    C167   C166      1.23218  1_545   S
    C167   H54       1.06508      .   S
    C132   C133      1.39708      .   S
    C132   H32       1.09100      .   S
    C158   C157      1.40485      .   S
    C158   C159      1.43426      .   S
    C133   H33       1.09279      .   S
    C90    C95       1.39652      .   S
    C90    C86       1.43277      .   S
    C95    H11       1.09083      .   S
    H48    C157      1.08535      .   S
    C161   C159      1.39757      .   S
    C161   C162      1.39683      .   S
    H39    C143      1.09264      .   S
    C87    H6        1.08501      .   S
    C87    C86       1.40455      .   S
    C157   C156      1.40639      .   S
    H50    C162      1.09262      .   S
    C159   C160      1.47923      .   S
    H60    C173      1.08508      .   S
    H40    C144      0.86238  1_655   S
    C162   C163      1.39763      .   S
    C143   C144      1.39665      .   S
    C143   C142      1.39747      .   S
    H38    C142      1.09265      .   S
    C144   C145      1.39660      .   S
    C174   C173      1.40522      .   S
    C174   C181      1.43208      .   S
    C173   C172      1.40587      .   S
    C142   C141      1.39634      .   S
    C156   C160      1.43412      .   S
    C160   C165      1.39651      .   S
    C145   H41       0.98114      .   S
    C145   C140      1.39651      .   S
    C163   H51       0.90352  1_565   S
    C163   C164      1.39680      .   S
    H65    C180      1.09094      .   S
    C141   H37       1.09045      .   S
    C141   C139      1.39710      .   S
    H26    C121      1.09245      .   S
    C172   C175      1.43348      .   S
    C181   C180      1.39684      .   S
    C181   C175      1.48067      .   S
    C165   C164      1.39667      .   S
    C165   H53       1.09070      .   S
    H27    C122      1.09285      .   S
    C140   C139      1.47956      .   S
    C140   C136      1.42693      .   S
    C164   H52       1.05575  1_565   S
    C180   C179      1.16101      .   S
    C139   C138      1.43362      .   S
    C121   C122      1.39659      .   S
    C179   H64       1.09194      .   S
