# CIF file generated by openbabel 2.4.90, see http://openbabel.sf.net
data_I
_chemical_name_common ''
_cell_length_a 17.224
_cell_length_b 17.234
_cell_length_c 17.292
_cell_angle_alpha 90.548
_cell_angle_beta 90
_cell_angle_gamma 90
_space_group_name_H-M_alt 'P 1'
_space_group_name_Hall 'P 1'
loop_
    _symmetry_equiv_pos_as_xyz
    x,y,z
loop_
    _atom_site_label
    _atom_site_type_symbol
    _atom_site_fract_x
    _atom_site_fract_y
    _atom_site_fract_z
    _atom_site_occupancy
    C0      C    0.56141   0.00867   0.03273   1.000
    C1      C    0.80432   0.86483   0.00585   1.000
    C2      C    0.53201   0.25066   0.87054   1.000
    C3      C    0.69541   0.27091   0.63220   1.000
    C4      C    0.68307   0.21704   0.12701   1.000
    C5      C    0.84116   0.23523   0.37014   1.000
    C6      C    0.46920   0.13196   0.24719   1.000
    C7      C    0.45198   0.90485   0.40104   1.000
    C8      C    0.43737   0.39943   0.09748   1.000
    C9      C    0.41464   0.64200   0.25837   1.000
    C10     C    0.57410   0.65995   0.52088   1.000
    C11     C    0.81295   0.49520   0.54500   1.000
    C12     C    0.05321   0.00000   0.98254   1.000
    C13     C    0.29450   0.15237   0.00000   1.000
    C14     C    0.00000   0.76693   0.14478   1.000
    C15     C    0.18777   0.74672   0.38320   1.000
    C16     C    0.17647   0.79982   0.88979   1.000
    C17     C    0.33311   0.78224   0.64551   1.000
    C18     C    0.97852   0.88503   0.76846   1.000
    C19     C    0.95965   0.11248   0.61471   1.000
    C20     C    0.94822   0.61695   0.91788   1.000
    C21     C    0.92158   0.37450   0.75735   1.000
    C22     C    0.06538   0.35763   0.49475   1.000
    C23     C    0.30442   0.52229   0.47004   1.000
