# CIF file generated by openbabel 2.4.90, see http://openbabel.sf.net
data_I
_chemical_name_common ''
_cell_length_a 17.224
_cell_length_b 17.234
_cell_length_c 17.292
_cell_angle_alpha 90.548
_cell_angle_beta 90
_cell_angle_gamma 90
_space_group_name_H-M_alt 'P 1'
_space_group_name_Hall 'P 1'
loop_
    _symmetry_equiv_pos_as_xyz
    x,y,z
loop_
    _atom_site_label
    _atom_site_type_symbol
    _atom_site_fract_x
    _atom_site_fract_y
    _atom_site_fract_z
    _atom_site_occupancy
    N0      N    0.07070   0.94450   0.58889   1.000
    N1      N    0.75629   0.68515   0.64066   1.000
    N2      N    0.86528   0.11490   0.18858   1.000
    N3      N    0.11725   0.17609   0.88440   1.000
    N4      N    0.35858   0.90256   0.82674   1.000
    N5      N    0.36258   0.59975   0.05312   1.000
    N6      N    0.98627   0.69559   0.34561   1.000
    N7      N    0.87048   0.41807   0.95794   1.000
    N8      N    0.57430   0.07050   0.42676   1.000
    N9      N    0.62520   0.84095   0.13006   1.000
    N10     N    0.48516   0.32214   0.66967   1.000
    N11     N    0.24747   0.33226   0.37503   1.000
    Zr12    Zr   0.88569   0.30561   0.56641   1.000
    O13     O    0.95369   0.15728   0.58666   1.000
    O14     O    0.82879   0.45627   0.58131   1.000
    O15     O    0.03077   0.32806   0.49731   1.000
    O16     O    0.86679   0.23706   0.41312   1.000
    O17     O    0.89035   0.35710   0.72072   1.000
    O18     O    0.72914   0.30168   0.61453   1.000
    Zr19    Zr   0.38008   0.71172   0.44917   1.000
    O20     O    0.53235   0.68935   0.51830   1.000
    O21     O    0.22471   0.71583   0.40093   1.000
    O22     O    0.38373   0.66018   0.29375   1.000
    O23     O    0.36032   0.78035   0.60242   1.000
    O24     O    0.44987   0.85947   0.42899   1.000
    O25     O    0.32163   0.56112   0.43423   1.000
    Zr26    Zr   0.99417   0.81937   0.95346   1.000
    O27     O    0.13883   0.83735   0.89919   1.000
    O28     O    0.01136   0.87377   0.80815   1.000
    O29     O    0.94948   0.65826   0.94352   1.000
    O30     O    0.99891   0.77337   0.10950   1.000
    O31     O    0.84475   0.83891   0.01410   1.000
    O32     O    0.04623   0.96073   0.94177   1.000
    Zr33    Zr   0.49318   0.19707   0.06090   1.000
    O34     O    0.50941   0.14247   0.20685   1.000
    O35     O    0.33982   0.17787   0.99932   1.000
    O36     O    0.54998   0.05500   0.07276   1.000
    O37     O    0.44445   0.35854   0.07028   1.000
    O38     O    0.50308   0.24369   0.90533   1.000
    O39     O    0.64174   0.17950   0.11595   1.000
loop_
    _geom_bond_atom_site_label_1
    _geom_bond_atom_site_label_2
    _geom_bond_distance
    _geom_bond_site_symmetry_2
    _ccdc_geom_bond_type
    Zr12   O13       2.83673      .   S
    N0     O13       4.18478  1_465   S
    Zr12   O14       2.78491      .   S
    N1     O14       4.25363      .   S
    Zr12   O15       2.79844  1_655   S
    N11    O15       4.29068      .   S
    Zr12   O16       2.90994      .   S
    N2     O16       4.39921      .   S
    Zr12   O17       2.80501      .   S
    N7     O17       4.23864      .   S
    Zr12   O18       2.82279      .   S
    N10    O18       4.32284      .   S
    Zr19   O20       2.90956      .   S
    N1     O20       4.40020      .   S
    Zr19   O21       2.80418      .   S
    N6     O21       4.23051  1_655   S
    Zr19   O22       2.82304      .   S
    N5     O22       4.29528      .   S
    Zr19   O23       2.91151      .   S
    N4     O23       4.39631      .   S
    Zr19   O24       2.84027      .   S
    N8     O24       4.22186  1_545   S
    Zr19   O25       2.79350      .   S
    N11    O25       4.26137      .   S
    Zr26   O27       2.68152  1_655   S
    N4     O27       4.14550      .   S
    Zr26   O28       2.70657  1_655   S
    N0     O28       4.12240      .   S
    Zr26   O29       2.88489      .   S
    N7     O29       4.36674      .   S
    Zr26   O30       2.82081  1_556   S
    N6     O30       4.31486      .   S
    Zr26   O31       2.79815  1_556   S
    N9     O31       4.28027      .   S
    Zr26   O32       2.60553  1_655   S
    N3     O32       4.04068  1_545   S
    Zr33   O34       2.71639      .   S
    N8     O34       4.16395      .   S
    Zr33   O35       2.86611  1_554   S
    N3     O35       4.31790      .   S
    Zr33   O36       2.64651      .   S
    N9     O36       4.04202  1_565   S
    Zr33   O37       2.90964      .   S
    N5     O37       4.40234      .   S
    Zr33   O38       2.82006  1_554   S
    N10    O38       4.31678      .   S
    Zr33   O39       2.74775      .   S
    N2     O39       4.20339      .   S
