# CIF file generated by openbabel 2.4.90, see http://openbabel.sf.net
data_I
_chemical_name_common ''
_cell_length_a 17.224
_cell_length_b 17.234
_cell_length_c 17.292
_cell_angle_alpha 90.548
_cell_angle_beta 90
_cell_angle_gamma 90
_space_group_name_H-M_alt 'P 1'
_space_group_name_Hall 'P 1'
loop_
    _symmetry_equiv_pos_as_xyz
    x,y,z
loop_
    _atom_site_label
    _atom_site_type_symbol
    _atom_site_fract_x
    _atom_site_fract_y
    _atom_site_fract_z
    _atom_site_occupancy
    Zr0     Zr   0.43336   0.10732   0.08427   1.000
    Zr1     Zr   0.58569   0.17240   0.00000   1.000
    Zr2     Zr   0.42610   0.26481   0.00000   1.000
    Zr3     Zr   0.51901   0.25859   0.14906   1.000
    Zr4     Zr   0.43781   0.61697   0.42620   1.000
    Zr5     Zr   0.35675   0.76915   0.35553   1.000
    Zr6     Zr   0.79340   0.32925   0.50745   1.000
    Zr7     Zr   0.44750   0.77733   0.51722   1.000
    Zr8     Zr   0.94218   0.90955   0.93097   1.000
    Zr9     Zr   0.07866   0.84503   0.00340   1.000
    Zr10    Zr   0.93597   0.75266   0.01025   1.000
    Zr11    Zr   0.01339   0.75698   0.86633   1.000
    Zr12    Zr   0.94591   0.40032   0.58949   1.000
    Zr13    Zr   0.86426   0.24816   0.65988   1.000
    Zr14    Zr   0.28542   0.68829   0.50810   1.000
    Zr15    Zr   0.95546   0.24011   0.49839   1.000
    Zr16    Zr   0.56141   0.00867   0.03273   1.000
    Zr17    Zr   0.80432   0.86483   0.00585   1.000
    Zr18    Zr   0.53201   0.25066   0.87054   1.000
    Zr19    Zr   0.69541   0.27091   0.63220   1.000
    Zr20    Zr   0.68307   0.21704   0.12701   1.000
    Zr21    Zr   0.84116   0.23523   0.37014   1.000
    Zr22    Zr   0.46920   0.13196   0.24719   1.000
    Zr23    Zr   0.45198   0.90485   0.40104   1.000
    Zr24    Zr   0.43737   0.39943   0.09748   1.000
    Zr25    Zr   0.41464   0.64200   0.25837   1.000
    Zr26    Zr   0.57410   0.65995   0.52088   1.000
    Zr27    Zr   0.81295   0.49520   0.54500   1.000
    Zr28    Zr   0.05321   0.00000   0.98254   1.000
    Zr29    Zr   0.29450   0.15237   0.00000   1.000
    Zr30    Zr   0.00000   0.76693   0.14478   1.000
    Zr31    Zr   0.18777   0.74672   0.38320   1.000
    Zr32    Zr   0.17647   0.79982   0.88979   1.000
    Zr33    Zr   0.33311   0.78224   0.64551   1.000
    Zr34    Zr   0.97852   0.88503   0.76846   1.000
    Zr35    Zr   0.95965   0.11248   0.61471   1.000
    Zr36    Zr   0.94822   0.61695   0.91788   1.000
    Zr37    Zr   0.92158   0.37450   0.75735   1.000
    Zr38    Zr   0.06538   0.35763   0.49475   1.000
    Zr39    Zr   0.30442   0.52229   0.47004   1.000
    Zr40    Zr   0.49192   0.20017   0.05491   1.000
    Zr41    Zr   0.49908   0.01362   0.07388   1.000
    Zr42    Zr   0.57937   0.05762   0.99567   1.000
    Zr43    Zr   0.84050   0.91588   0.98148   1.000
    Zr44    Zr   0.83075   0.79748   0.02295   1.000
    Zr45    Zr   0.58732   0.22051   0.91024   1.000
    Zr46    Zr   0.46445   0.26806   0.89696   1.000
    Zr47    Zr   0.75111   0.23040   0.66004   1.000
    Zr48    Zr   0.69807   0.30623   0.56690   1.000
    Zr49    Zr   0.67968   0.17988   0.06192   1.000
    Zr50    Zr   0.63379   0.26850   0.14879   1.000
    Zr51    Zr   0.90488   0.21076   0.39980   1.000
    Zr52    Zr   0.79305   0.28171   0.40372   1.000
    Zr53    Zr   0.50772   0.19594   0.24365   1.000
    Zr54    Zr   0.41692   0.11191   0.19771   1.000
    Zr55    Zr   0.47495   0.87538   0.46496   1.000
    Zr56    Zr   0.40695   0.87105   0.35179   1.000
    Zr57    Zr   0.46800   0.35994   0.15255   1.000
    Zr58    Zr   0.42061   0.37229   0.03006   1.000
    Zr59    Zr   0.45805   0.61734   0.31321   1.000
    Zr60    Zr   0.37625   0.70619   0.26100   1.000
    Zr61    Zr   0.38079   0.71286   0.45110   1.000
    Zr62    Zr   0.54655   0.72606   0.54216   1.000
    Zr63    Zr   0.53889   0.61044   0.47731   1.000
    Zr64    Zr   0.87810   0.49215   0.58205   1.000
    Zr65    Zr   0.78918   0.44339   0.49737   1.000
    Zr66    Zr   0.00000   0.81668   0.95953   1.000
    Zr67    Zr   0.00000   0.00000   0.94140   1.000
    Zr68    Zr   0.07226   0.95975   0.01966   1.000
    Zr69    Zr   0.33165   0.10137   0.03394   1.000
    Zr70    Zr   0.32101   0.21962   0.99212   1.000
    Zr71    Zr   0.07988   0.79703   0.10512   1.000
    Zr72    Zr   0.97370   0.74954   0.11832   1.000
    Zr73    Zr   0.24369   0.78687   0.35522   1.000
    Zr74    Zr   0.19020   0.71172   0.44866   1.000
    Zr75    Zr   0.17261   0.83784   0.95432   1.000
    Zr76    Zr   0.12798   0.74703   0.86918   1.000
    Zr77    Zr   0.39677   0.80675   0.61572   1.000
    Zr78    Zr   0.28499   0.73574   0.61199   1.000
    Zr79    Zr   0.00000   0.82105   0.77221   1.000
    Zr80    Zr   0.92592   0.90521   0.81756   1.000
    Zr81    Zr   0.98278   0.14207   0.55090   1.000
    Zr82    Zr   0.91445   0.14626   0.66382   1.000
    Zr83    Zr   0.97972   0.65547   0.86259   1.000
    Zr84    Zr   0.93165   0.64483   0.98504   1.000
    Zr85    Zr   0.96610   0.39762   0.70270   1.000
    Zr86    Zr   0.88125   0.31152   0.75457   1.000
    Zr87    Zr   0.88871   0.30453   0.56448   1.000
    Zr88    Zr   0.03778   0.29153   0.47340   1.000
    Zr89    Zr   0.03019   0.40715   0.53832   1.000
    Zr90    Zr   0.36963   0.52525   0.43360   1.000
    Zr91    Zr   0.28063   0.57418   0.51808   1.000
    O92     O    0.53881   0.18629   0.02746   1.000
    O93     O    0.63269   0.17614   0.03096   1.000
    O94     O    0.58650   0.19646   0.95512   1.000
    O95     O    0.58253   0.11501   0.99784   1.000
    O96     O    0.31307   0.12687   0.01697   1.000
    O97     O    0.30776   0.18599   0.99606   1.000
    O98     O    0.42336   0.31855   0.01503   1.000
    O99     O    0.45901   0.23249   0.02746   1.000
    O100    O    0.44528   0.26644   0.94848   1.000
    O101    O    0.37356   0.24221   0.99606   1.000
    O102    O    0.07546   0.90239   0.01153   1.000
    O103    O    0.07927   0.82103   0.05426   1.000
    O104    O    0.12564   0.84144   0.97886   1.000
    O105    O    0.03933   0.83086   0.98147   1.000
    O106    O    0.81754   0.83115   0.01440   1.000
    O107    O    0.82241   0.89036   0.99367   1.000
    O108    O    0.88336   0.77507   0.01660   1.000
    O109    O    0.95484   0.75110   0.06429   1.000
    O110    O    0.96798   0.78467   0.98489   1.000
    O111    O    0.93381   0.69875   0.99765   1.000
    O112    O    0.06274   0.97987   0.00110   1.000
    O113    O    0.42899   0.38586   0.06377   1.000
    O114    O    0.53024   0.01115   0.05331   1.000
    O115    O    0.57039   0.03314   0.01420   1.000
    O116    O    0.38250   0.10435   0.05911   1.000
    O117    O    0.68138   0.19846   0.09447   1.000
    O118    O    0.46622   0.06047   0.07908   1.000
    O119    O    0.42514   0.10961   0.14099   1.000
    O120    O    0.45268   0.37968   0.12502   1.000
    O121    O    0.03994   0.78198   0.12495   1.000
    O122    O    0.98685   0.75824   0.13155   1.000
    O123    O    0.65843   0.24277   0.13790   1.000
    O124    O    0.57640   0.26355   0.14893   1.000
    O125    O    0.49350   0.30927   0.15081   1.000
    O126    O    0.51336   0.22727   0.19636   1.000
    O127    O    0.44306   0.12194   0.22245   1.000
    O128    O    0.48846   0.16395   0.24542   1.000
    O129    O    0.39545   0.67409   0.25969   1.000
    O130    O    0.43635   0.62967   0.28579   1.000
    O131    O    0.36650   0.73767   0.30827   1.000
    O132    O    0.44793   0.61715   0.36971   1.000
    O133    O    0.38185   0.82010   0.35366   1.000
    O134    O    0.42946   0.88795   0.37642   1.000
    O135    O    0.30022   0.77801   0.35538   1.000
    O136    O    0.21573   0.76679   0.36921   1.000
    O137    O    0.87302   0.22299   0.38497   1.000
    O138    O    0.81711   0.25847   0.38693   1.000
    O139    O    0.18899   0.72922   0.41593   1.000
    O140    O    0.93017   0.22543   0.44910   1.000
    O141    O    0.46346   0.89011   0.43300   1.000
    O142    O    0.79323   0.30548   0.45559   1.000
    O143    O    0.40372   0.57111   0.42990   1.000
    O144    O    0.48835   0.61371   0.45176   1.000
    O145    O    0.33702   0.52377   0.45182   1.000
    O146    O    0.23781   0.70000   0.47838   1.000
    O147    O    0.33311   0.70057   0.47960   1.000
    O148    O    0.41415   0.74509   0.48416   1.000
    O149    O    0.46123   0.82635   0.49109   1.000
    O150    O    0.29252   0.54824   0.49406   1.000
    O151    O    0.05158   0.32458   0.48408   1.000
    O152    O    0.99662   0.26582   0.48590   1.000
    O153    O    0.55649   0.63519   0.49910   1.000
    O154    O    0.04778   0.38239   0.51654   1.000
    O155    O    0.79129   0.38632   0.50241   1.000
    O156    O    0.80106   0.46930   0.52119   1.000
    O157    O    0.96912   0.19109   0.52465   1.000
    O158    O    0.92208   0.27232   0.53144   1.000
    O159    O    0.84106   0.31689   0.53597   1.000
    O160    O    0.74574   0.31774   0.53718   1.000
    O161    O    0.28302   0.63124   0.51309   1.000
    O162    O    0.28521   0.71201   0.56005   1.000
    O163    O    0.49703   0.75170   0.52969   1.000
    O164    O    0.42214   0.79204   0.56647   1.000
    O165    O    0.56032   0.69301   0.53152   1.000
    O166    O    0.98805   0.40374   0.56391   1.000
    O167    O    0.84552   0.49367   0.56353   1.000
    O168    O    0.97121   0.12727   0.58281   1.000
    O169    O    0.69674   0.28857   0.59955   1.000
    O170    O    0.91200   0.44624   0.58577   1.000
    O171    O    0.95600   0.39897   0.64610   1.000
    O172    O    0.30905   0.75899   0.62875   1.000
    O173    O    0.93705   0.12937   0.63927   1.000
    O174    O    0.36494   0.79450   0.63062   1.000
    O175    O    0.72326   0.25065   0.64612   1.000
    O176    O    0.80769   0.23928   0.65996   1.000
    O177    O    0.88936   0.19721   0.66185   1.000
    O178    O    0.87276   0.27984   0.70723   1.000
    O179    O    0.94384   0.38606   0.73003   1.000
    O180    O    0.90141   0.34301   0.75596   1.000
    O181    O    0.98926   0.85304   0.77034   1.000
    O182    O    0.95222   0.89512   0.79301   1.000
    O183    O    0.00670   0.78901   0.81927   1.000
    O184    O    0.93405   0.90738   0.87427   1.000
    O185    O    0.99656   0.70622   0.86446   1.000
    O186    O    0.96397   0.63621   0.89024   1.000
    O187    O    0.07068   0.75200   0.86776   1.000
    O188    O    0.15222   0.77342   0.87949   1.000
    O189    O    0.49823   0.25936   0.88375   1.000
    O190    O    0.55966   0.23559   0.89039   1.000
    O191    O    0.17454   0.81883   0.92206   1.000
    O192    O    0.93994   0.63089   0.95146   1.000
    O193    O    0.97109   0.95478   0.93619   1.000
    O194    O    0.89134   0.91272   0.95623   1.000
    O195    O    0.02660   0.00000   0.96197   1.000
    O196    O    0.46264   0.15374   0.06959   1.000
    O197    O    0.50546   0.22938   0.10199   1.000
    O198    O    0.40930   0.66492   0.43865   1.000
    O199    O    0.36877   0.74100   0.40332   1.000
    O200    O    0.97109   0.86311   0.94525   1.000
    O201    O    0.00669   0.78683   0.91293   1.000
    O202    O    0.91731   0.35243   0.57699   1.000
    O203    O    0.87649   0.27634   0.61218   1.000
    N204    N    0.07070   0.94450   0.58889   1.000
    O205    O    0.02170   0.00894   0.60691   1.000
    O206    O    0.02854   0.92817   0.66283   1.000
    N207    N    0.75629   0.68515   0.64066   1.000
    O208    O    0.68463   0.66698   0.58744   1.000
    O209    O    0.77190   0.60694   0.59621   1.000
    N210    N    0.86528   0.11490   0.18858   1.000
    O211    O    0.84789   0.16850   0.25984   1.000
    O212    O    0.79029   0.16193   0.17099   1.000
    N213    N    0.11725   0.17609   0.88440   1.000
    O214    O    0.18645   0.15867   0.93774   1.000
    O215    O    0.09829   0.10208   0.93008   1.000
    N216    N    0.35858   0.90256   0.82674   1.000
    O217    O    0.34056   0.84897   0.75567   1.000
    O218    O    0.28350   0.85533   0.84493   1.000
    N219    N    0.36258   0.59975   0.05312   1.000
    O220    O    0.38739   0.60864   0.13834   1.000
    O221    O    0.39571   0.52001   0.07965   1.000
    N222    N    0.98627   0.69559   0.34561   1.000
    O223    O    0.00365   0.72736   0.26555   1.000
    O224    O    0.06934   0.71994   0.35269   1.000
    N225    N    0.87048   0.41807   0.95794   1.000
    O226    O    0.89502   0.40859   0.87502   1.000
    O227    O    0.90480   0.49714   0.93359   1.000
    N228    N    0.57430   0.07050   0.42676   1.000
    O229    O    0.51967   0.00721   0.40880   1.000
    O230    O    0.52565   0.08787   0.35280   1.000
    N231    N    0.62520   0.84095   0.13006   1.000
    O232    O    0.60679   0.91292   0.08462   1.000
    O233    O    0.69533   0.85845   0.07475   1.000
    N234    N    0.48516   0.32214   0.66967   1.000
    O235    O    0.51298   0.29031   0.74976   1.000
    O236    O    0.57260   0.29775   0.66265   1.000
    N237    N    0.24747   0.33226   0.37503   1.000
    O238    O    0.26319   0.41052   0.41928   1.000
    O239    O    0.17586   0.35051   0.42820   1.000
loop_
    _geom_bond_atom_site_label_1
    _geom_bond_atom_site_label_2
    _geom_bond_distance
    _geom_bond_site_symmetry_2
    _ccdc_geom_bond_type
    Zr1    O92       0.96577      .   S
    Zr40   O92       0.96577      .   S
    Zr1    O93       0.97227      .   S
    Zr49   O93       0.97227      .   S
    Zr1    O94       0.88345  1_554   S
    Zr45   O94       0.88345      .   S
    Zr1    O95       0.99093  1_554   S
    Zr42   O95       0.99093      .   S
    Zr29   O96       0.61966      .   S
    Zr69   O96       0.61966      .   S
    Zr29   O97       0.62719  1_554   S
    Zr70   O97       0.62719      .   S
    Zr2    O98       0.96067      .   S
    Zr58   O98       0.96067      .   S
    Zr2    O99       0.92844      .   S
    Zr40   O99       0.92844      .   S
    Zr2    O100      0.95080  1_554   S
    Zr46   O100      0.95080      .   S
    Zr2    O101      0.98733  1_554   S
    Zr70   O101      0.98733      .   S
    Zr9    O102      0.99865      .   S
    Zr68   O102      0.99865      .   S
    Zr9    O103      0.97552      .   S
    Zr71   O103      0.97552      .   S
    Zr9    O104      0.91546  1_554   S
    Zr75   O104      0.91546      .   S
    Zr9    O105      0.81285  1_554   S
    Zr66   O105      0.81285      .   S
    Zr17   O106      0.64199      .   S
    Zr44   O106      0.64199      .   S
    Zr17   O107      0.58032  1_554   S
    Zr43   O107      0.58032      .   S
    Zr10   O108      0.99073      .   S
    Zr44   O108      0.99073      .   S
    Zr10   O109      0.98988      .   S
    Zr72   O109      0.98988      .   S
    Zr10   O110      0.89739  1_554   S
    Zr66   O110      0.89739  1_455   S
    Zr10   O111      0.95310  1_554   S
    Zr84   O111      0.95310      .   S
    Zr68   O112      0.50234      .   S
    Zr28   O112      0.50234  1_546   S
    Zr58   O113      0.64242      .   S
    Zr24   O113      0.64242      .   S
    Zr16   O114      0.64514      .   S
    Zr41   O114      0.64514      .   S
    Zr16   O115      0.55416      .   S
    Zr42   O115      0.55416  1_556   S
    Zr69   O116      0.97917      .   S
    Zr0    O116      0.97917      .   S
    Zr49   O117      0.64546      .   S
    Zr20   O117      0.64546      .   S
    Zr41   O118      0.98940      .   S
    Zr0    O118      0.98940      .   S
    Zr0    O119      0.99138      .   S
    Zr54   O119      0.99138      .   S
    Zr24   O120      0.64436      .   S
    Zr57   O120      0.64436      .   S
    Zr71   O121      0.81229      .   S
    Zr30   O121      0.81229      .   S
    Zr72   O122      0.35414      .   S
    Zr30   O122      0.35414  1_455   S
    Zr20   O123      0.64078      .   S
    Zr50   O123      0.64078      .   S
    Zr50   O124      0.99222      .   S
    Zr3    O124      0.99222      .   S
    Zr3    O125      0.97775      .   S
    Zr57   O125      0.97775      .   S
    Zr3    O126      0.98905      .   S
    Zr53   O126      0.98905      .   S
    Zr54   O127      0.64352      .   S
    Zr22   O127      0.64352      .   S
    Zr53   O128      0.64442      .   S
    Zr22   O128      0.64442      .   S
    Zr25   O129      0.64464      .   S
    Zr60   O129      0.64464      .   S
    Zr25   O130      0.64159      .   S
    Zr59   O130      0.64159      .   S
    Zr60   O131      0.99098      .   S
    Zr5    O131      0.99098      .   S
    Zr59   O132      0.99238      .   S
    Zr4    O132      0.99238      .   S
    Zr56   O133      0.97954      .   S
    Zr5    O133      0.97954      .   S
    Zr56   O134      0.64356      .   S
    Zr23   O134      0.64356      .   S
    Zr73   O135      0.98556      .   S
    Zr5    O135      0.98556      .   S
    Zr73   O136      0.64172      .   S
    Zr31   O136      0.64172      .   S
    Zr21   O137      0.64224      .   S
    Zr51   O137      0.64224      .   S
    Zr21   O138      0.64350      .   S
    Zr52   O138      0.64350      .   S
    Zr31   O139      0.64417      .   S
    Zr74   O139      0.64417      .   S
    Zr51   O140      0.98800      .   S
    Zr15   O140      0.98800      .   S
    Zr23   O141      0.64170      .   S
    Zr55   O141      0.64170      .   S
    Zr52   O142      0.98240      .   S
    Zr6    O142      0.98240      .   S
    Zr4    O143      0.98719      .   S
    Zr90   O143      0.98719      .   S
    Zr4    O144      0.97811      .   S
    Zr63   O144      0.97811      .   S
    Zr90   O145      0.64454      .   S
    Zr39   O145      0.64454      .   S
    Zr74   O146      0.98957      .   S
    Zr14   O146      0.98957      .   S
    Zr61   O147      0.98200      .   S
    Zr14   O147      0.98200      .   S
    Zr61   O148      0.97949      .   S
    Zr7    O148      0.97949      .   S
    Zr55   O149      0.99055      .   S
    Zr7    O149      0.99055      .   S
    Zr39   O150      0.64100      .   S
    Zr91   O150      0.64100      .   S
    Zr88   O151      0.64257      .   S
    Zr38   O151      0.64257      .   S
    Zr88   O152      0.86460  1_455   S
    Zr15   O152      0.86460      .   S
    Zr63   O153      0.64248      .   S
    Zr26   O153      0.64248      .   S
    Zr38   O154      0.64249      .   S
    Zr89   O154      0.64249      .   S
    Zr65   O155      0.98895      .   S
    Zr6    O155      0.98895      .   S
    Zr65   O156      0.63814      .   S
    Zr27   O156      0.63814      .   S
    Zr15   O157      0.99123      .   S
    Zr81   O157      0.99123      .   S
    Zr15   O158      0.97928      .   S
    Zr87   O158      0.97928      .   S
    Zr6    O159      0.98194      .   S
    Zr87   O159      0.98194      .   S
    Zr6    O160      0.98973      .   S
    Zr48   O160      0.98973      .   S
    Zr14   O161      0.98871      .   S
    Zr91   O161      0.98871      .   S
    Zr14   O162      0.98336      .   S
    Zr78   O162      0.98336      .   S
    Zr7    O163      0.98545      .   S
    Zr62   O163      0.98545      .   S
    Zr7    O164      0.98808      .   S
    Zr77   O164      0.98808      .   S
    Zr26   O165      0.64239      .   S
    Zr62   O165      0.64239      .   S
    Zr89   O166      0.85238  1_455   S
    Zr12   O166      0.85238      .   S
    Zr27   O167      0.64675      .   S
    Zr64   O167      0.64675      .   S
    Zr81   O168      0.64168      .   S
    Zr35   O168      0.64168      .   S
    Zr48   O169      0.64438      .   S
    Zr19   O169      0.64438      .   S
    Zr64   O170      0.98601      .   S
    Zr12   O170      0.98601      .   S
    Zr12   O171      0.99463      .   S
    Zr85   O171      0.99463      .   S
    Zr78   O172      0.64351      .   S
    Zr33   O172      0.64351      .   S
    Zr35   O173      0.64359      .   S
    Zr82   O173      0.64359      .   S
    Zr77   O174      0.64227      .   S
    Zr33   O174      0.64227      .   S
    Zr19   O175      0.64151      .   S
    Zr47   O175      0.64151      .   S
    Zr13   O176      0.98640      .   S
    Zr47   O176      0.98640      .   S
    Zr13   O177      0.97954      .   S
    Zr82   O177      0.97954      .   S
    Zr13   O178      0.99057      .   S
    Zr86   O178      0.99057      .   S
    Zr85   O179      0.64167      .   S
    Zr37   O179      0.64167      .   S
    Zr86   O180      0.64457      .   S
    Zr37   O180      0.64457      .   S
    Zr34   O181      0.58273      .   S
    Zr79   O181      0.58273  1_455   S
    Zr34   O182      0.64360      .   S
    Zr80   O182      0.64360      .   S
    Zr79   O183      0.99445      .   S
    Zr11   O183      0.99445      .   S
    Zr80   O184      0.99084      .   S
    Zr8    O184      0.99084      .   S
    Zr83   O185      0.92182      .   S
    Zr11   O185      0.92182  1_455   S
    Zr83   O186      0.64443      .   S
    Zr36   O186      0.64443      .   S
    Zr11   O187      0.99086      .   S
    Zr76   O187      0.99086      .   S
    Zr76   O188      0.64150      .   S
    Zr32   O188      0.64150      .   S
    Zr18   O189      0.64228      .   S
    Zr46   O189      0.64228      .   S
    Zr18   O190      0.64332      .   S
    Zr45   O190      0.64332      .   S
    Zr32   O191      0.64517      .   S
    Zr75   O191      0.64517      .   S
    Zr36   O192      0.64233      .   S
    Zr84   O192      0.64233      .   S
    Zr8    O193      0.92854      .   S
    Zr67   O193      0.92854  1_445   S
    Zr8    O194      0.97981      .   S
    Zr43   O194      0.97981      .   S
    Zr67   O195      0.58009      .   S
    Zr28   O195      0.58009      .   S
    Zr40   O196      0.98123      .   S
    Zr0    O196      0.98123      .   S
    Zr40   O197      0.98117      .   S
    Zr3    O197      0.98117      .   S
    Zr61   O198      0.98321      .   S
    Zr4    O198      0.98321      .   S
    Zr61   O199      0.98417      .   S
    Zr5    O199      0.98417      .   S
    Zr66   O200      0.97628  1_455   S
    Zr8    O200      0.97628      .   S
    Zr66   O201      0.95882      .   S
    Zr11   O201      0.95882      .   S
    Zr87   O202      0.98355      .   S
    Zr12   O202      0.98355      .   S
    Zr87   O203      0.98400      .   S
    Zr13   O203      0.98400      .   S
    N204   O205      1.42691  1_565   S
    Zr35   O205      2.08318  1_655   S
    N204   O206      1.49950      .   S
    Zr34   O206      2.15797  1_655   S
    N207   O208      1.56938      .   S
    Zr26   O208      2.22738      .   S
    N207   O209      1.56842      .   S
    Zr27   O209      2.22709      .   S
    N210   O211      1.56195      .   S
    Zr21   O211      2.22083      .   S
    N210   O212      1.55639      .   S
    Zr20   O212      2.21465      .   S
    N213   O214      1.53847      .   S
    Zr29   O214      2.15328  1_554   S
    N213   O215      1.54175      .   S
    Zr28   O215      2.13334      .   S
    N216   O217      1.56144      .   S
    Zr33   O217      2.21929      .   S
    N216   O218      1.56171      .   S
    Zr32   O218      2.22024      .   S
    N219   O220      1.54060      .   S
    Zr25   O220      2.19910      .   S
    N219   O221      1.56103      .   S
    Zr24   O221      2.22271      .   S
    N222   O223      1.52342  1_655   S
    Zr30   O223      2.20389      .   S
    N222   O224      1.49583  1_655   S
    Zr31   O224      2.15581      .   S
    N225   O226      1.50227      .   S
    Zr37   O226      2.16141      .   S
    N225   O227      1.54754      .   S
    Zr36   O227      2.21519      .   S
    N228   O229      1.47140      .   S
    Zr23   O229      2.11772  1_565   S
    N228   O230      1.56039      .   S
    Zr22   O230      2.21013      .   S
    N231   O232      1.50839      .   S
    Zr16   O232      2.04131  1_545   S
    N231   O233      1.57180      .   S
    Zr17   O233      2.22667      .   S
    N234   O235      1.56944      .   S
    Zr18   O235      2.22795      .   S
    N234   O236      1.56801      .   S
    Zr19   O236      2.22731      .   S
    N237   O238      1.56791      .   S
    Zr39   O238      2.22547      .   S
    N237   O239      1.56854      .   S
    Zr38   O239      2.22657      .   S
