# CIF file generated by openbabel 2.4.90, see http://openbabel.sf.net
data_I
_chemical_name_common ''
_cell_length_a 18.434
_cell_length_b 18.423
_cell_length_c 18.421
_cell_angle_alpha 60.161
_cell_angle_beta 60.179
_cell_angle_gamma 60.182
_space_group_name_H-M_alt 'P 1'
_space_group_name_Hall 'P 1'
loop_
    _symmetry_equiv_pos_as_xyz
    x,y,z
loop_
    _atom_site_label
    _atom_site_type_symbol
    _atom_site_fract_x
    _atom_site_fract_y
    _atom_site_fract_z
    _atom_site_occupancy
    Zn0     Zn   0.29364   0.29372   0.29370   1.000
    Zn1     Zn   0.11969   0.29328   0.29328   1.000
    Zn2     Zn   0.29326   0.11953   0.29337   1.000
    Zn3     Zn   0.70670   0.70664   0.88051   1.000
    Zn4     Zn   0.70635   0.70631   0.70628   1.000
    Zn5     Zn   0.70671   0.88049   0.70660   1.000
    Zn6     Zn   0.88029   0.70675   0.70671   1.000
    Zn7     Zn   0.29328   0.29339   0.11949   1.000
    C8      C    0.38896   0.38912   0.11110   1.000
    C9      C    0.11099   0.11085   0.38880   1.000
    C10     C    0.38873   0.11095   0.11090   1.000
    C11     C    0.11118   0.38904   0.38900   1.000
    C12     C    0.38895   0.11112   0.38911   1.000
    C13     C    0.11100   0.38880   0.11083   1.000
    C14     C    0.61102   0.61090   0.88889   1.000
    C15     C    0.88899   0.88918   0.61120   1.000
    C16     C    0.88898   0.61122   0.88916   1.000
    C17     C    0.61103   0.88890   0.61088   1.000
    C18     C    0.88880   0.61099   0.61095   1.000
    C19     C    0.61125   0.88908   0.88910   1.000
    O20     O    0.25006   0.25001   0.20000   1.000
    O21     O    0.74992   0.75001   0.75000   1.000
    O22     O    0.36663   0.36698   0.07147   1.000
    O23     O    0.36705   0.36711   0.19493   1.000
    O24     O    0.07147   0.19464   0.36652   1.000
    O25     O    0.19472   0.07123   0.36677   1.000
    O26     O    0.36654   0.07134   0.19471   1.000
    O27     O    0.36659   0.19475   0.07128   1.000
    O28     O    0.07164   0.36675   0.36670   1.000
    O29     O    0.19492   0.36712   0.36712   1.000
    O30     O    0.36706   0.19494   0.36710   1.000
    O31     O    0.36661   0.07150   0.36697   1.000
    O32     O    0.07147   0.36651   0.19464   1.000
    O33     O    0.19473   0.36678   0.07120   1.000
    O34     O    0.63335   0.63304   0.92850   1.000
    O35     O    0.63293   0.63292   0.80500   1.000
    O36     O    0.80526   0.92880   0.63322   1.000
    O37     O    0.92851   0.80538   0.63348   1.000
    O38     O    0.92851   0.63352   0.80535   1.000
    O39     O    0.80525   0.63324   0.92880   1.000
    O40     O    0.63336   0.92852   0.63303   1.000
    O41     O    0.63292   0.80509   0.63290   1.000
    O42     O    0.80506   0.63290   0.63288   1.000
    O43     O    0.92834   0.63328   0.63323   1.000
    O44     O    0.63344   0.92868   0.80528   1.000
    O45     O    0.63339   0.80528   0.92872   1.000
    Og46    Og   0.40807   0.40823   0.09197   1.000
    Og47    Og   0.09188   0.09176   0.40796   1.000
    Og48    Og   0.40789   0.09184   0.09180   1.000
    Og49    Og   0.09204   0.40815   0.40812   1.000
    Og50    Og   0.40807   0.09199   0.40821   1.000
    Og51    Og   0.09188   0.40796   0.09174   1.000
    Og52    Og   0.59191   0.59180   0.90799   1.000
    Og53    Og   0.90810   0.90827   0.59204   1.000
    Og54    Og   0.90810   0.59207   0.90825   1.000
    Og55    Og   0.59191   0.90803   0.59178   1.000
    Og56    Og   0.90794   0.59188   0.59185   1.000
    Og57    Og   0.59209   0.90818   0.90820   1.000
loop_
    _geom_bond_atom_site_label_1
    _geom_bond_atom_site_label_2
    _geom_bond_distance
    _geom_bond_site_symmetry_2
    _ccdc_geom_bond_type
    O33    C13       1.27716      .   S
    O33    Zn7       1.97175      .   S
    O27    C10       1.27713      .   S
    O27    Zn7       1.97164      .   S
    O22    C8        1.27704      .   S
    O22    Zn7       1.97205      .   S
    C13    O32       1.27706      .   S
    C10    O26       1.27708      .   S
    C8     O23       1.27735      .   S
    Zn7    O20       1.32341      .   S
    O32    Zn1       1.97129      .   S
    O26    Zn2       1.97159      .   S
    O23    Zn0       1.97299      .   S
    O20    Zn1       2.17125      .   S
    Zn1    O24       1.97132      .   S
    Zn1    O28       1.97074      .   S
    Zn2    O25       1.97172      .   S
    Zn2    O31       1.97207      .   S
    Zn0    O30       1.97327      .   S
    Zn0    O29       1.97337      .   S
    O24    C9        1.27706      .   S
    O28    C11       1.27739      .   S
    O25    C9        1.27715      .   S
    O31    C12       1.27702      .   S
    O30    C12       1.27731      .   S
    O29    C11       1.27745      .   S
    C17    O41       1.27728      .   S
    C17    O40       1.27716      .   S
    C18    O42       1.27732      .   S
    C18    O43       1.27708      .   S
    C15    O36       1.27715      .   S
    C15    O37       1.27707      .   S
    O42    Zn4       1.97319      .   S
    O41    Zn4       1.97305      .   S
    O40    Zn5       1.97161      .   S
    O36    Zn5       1.97174      .   S
    O43    Zn6       1.97166      .   S
    O37    Zn6       1.97132      .   S
    Zn4    O35       1.97277      .   S
    Zn5    O21       1.96696      .   S
    Zn5    O44       1.97188      .   S
    Zn6    O21       1.96682      .   S
    Zn6    O38       1.97130      .   S
    O35    C14       1.27833      .   S
    O44    C19       1.27722      .   S
    O38    C16       1.27706      .   S
    Zn3    O34       1.97215      .   S
    Zn3    O45       1.97164      .   S
    Zn3    O39       1.97177      .   S
    C14    O34       1.27673      .   S
    C19    O45       1.27713      .   S
    C16    O39       1.27718      .   S
    O20    Zn2       2.17145      .   S
    O21    Zn3       1.96710      .   S
    O21    Zn4       1.96819      .   S
    C8     Og46      0.49862      .   S
    C9     Og47      0.49844      .   S
    C10    Og48      0.49844      .   S
    C11    Og49      0.49878      .   S
    C12    Og50      0.49862      .   S
    C13    Og51      0.49841      .   S
    C14    Og52      0.49861      .   S
    C15    Og53      0.49844      .   S
    C16    Og54      0.49845      .   S
    C17    Og55      0.49860      .   S
    C18    Og56      0.49859      .   S
    C19    Og57      0.49844      .   S
