# CIF file generated by openbabel 2.4.90, see http://openbabel.sf.net
data_I
_chemical_name_common ''
_cell_length_a 18.434
_cell_length_b 18.423
_cell_length_c 18.421
_cell_angle_alpha 60.161
_cell_angle_beta 60.179
_cell_angle_gamma 60.182
_space_group_name_H-M_alt 'P 1'
_space_group_name_Hall 'P 1'
loop_
    _symmetry_equiv_pos_as_xyz
    x,y,z
loop_
    _atom_site_label
    _atom_site_type_symbol
    _atom_site_fract_x
    _atom_site_fract_y
    _atom_site_fract_z
    _atom_site_occupancy
    N0      N    0.99999   0.50001   0.00000   1.000
    N1      N    0.99999   0.00001   0.50000   1.000
    N2      N    0.49999   0.50001   0.99999   1.000
    N3      N    0.49999   0.00001   0.99996   1.000
    N4      N    0.49999   0.00001   0.50000   1.000
    N5      N    0.99999   0.50001   0.49999   1.000
    Zr6     Zr   0.24996   0.24998   0.24778   1.000
    O7      O    0.14556   0.14554   0.35327   1.000
    O8      O    0.35439   0.14560   0.35333   1.000
    O9      O    0.35439   0.35444   0.14449   1.000
    O10     O    0.14560   0.35441   0.35331   1.000
    O11     O    0.35435   0.14556   0.14444   1.000
    O12     O    0.14556   0.35438   0.14444   1.000
    Zr13    Zr   0.75002   0.75005   0.75003   1.000
    O14     O    0.64559   0.64559   0.85440   1.000
    O15     O    0.64563   0.85446   0.85444   1.000
    O16     O    0.85442   0.64565   0.85446   1.000
    O17     O    0.64560   0.85443   0.64557   1.000
    O18     O    0.85442   0.85448   0.64563   1.000
    O19     O    0.85438   0.64561   0.64559   1.000
loop_
    _geom_bond_atom_site_label_1
    _geom_bond_atom_site_label_2
    _geom_bond_distance
    _geom_bond_site_symmetry_2
    _ccdc_geom_bond_type
    Zr6    O7        2.72472      .   S
    N1     O7        3.79796  1_655   S
    Zr6    O8        2.73936      .   S
    N4     O8        3.81307      .   S
    Zr6    O9        2.72520      .   S
    N2     O9        3.79886  1_556   S
    Zr6    O10       2.73923      .   S
    N5     O10       3.81301  1_655   S
    Zr6    O11       2.71042      .   S
    N3     O11       3.78388  1_556   S
    Zr6    O12       2.71039      .   S
    N0     O12       3.78367  1_655   S
    Zr13   O14       2.72518      .   S
    N2     O14       3.79887      .   S
    Zr13   O15       2.72435      .   S
    N3     O15       3.79730  1_545   S
    Zr13   O16       2.72457      .   S
    N0     O16       3.79789  1_554   S
    Zr13   O17       2.72512      .   S
    N4     O17       3.79879  1_545   S
    Zr13   O18       2.72459      .   S
    N1     O18       3.79783  1_545   S
    Zr13   O19       2.72512      .   S
    N5     O19       3.79891      .   S
