# CIF file generated by openbabel 2.4.90, see http://openbabel.sf.net
data_I
_chemical_name_common ''
_cell_length_a 12.416
_cell_length_b 15.662
_cell_length_c 15.483
_cell_angle_alpha 89.974
_cell_angle_beta 89.987
_cell_angle_gamma 90.033
_space_group_name_H-M_alt 'P 1'
_space_group_name_Hall 'P 1'
loop_
    _symmetry_equiv_pos_as_xyz
    x,y,z
loop_
    _atom_site_label
    _atom_site_type_symbol
    _atom_site_fract_x
    _atom_site_fract_y
    _atom_site_fract_z
    _atom_site_occupancy
    Lv0     Lv   0.31184   0.16090   0.26672   1.000
    Lv1     Lv   0.68808   0.16089   0.73342   1.000
    Lv2     Lv   0.31188   0.83904   0.26664   1.000
    Lv3     Lv   0.81188   0.33895   0.23323   1.000
    Lv4     Lv   0.81189   0.66080   0.23345   1.000
    Lv5     Lv   0.68816   0.83900   0.73322   1.000
    Lv6     Lv   0.18806   0.66108   0.76679   1.000
    Lv7     Lv   0.18812   0.33924   0.76657   1.000
