# CIF file generated by openbabel 2.4.90, see http://openbabel.sf.net
data_I
_chemical_name_common ''
_cell_length_a 12.416
_cell_length_b 15.662
_cell_length_c 15.483
_cell_angle_alpha 89.974
_cell_angle_beta 89.987
_cell_angle_gamma 90.033
_space_group_name_H-M_alt 'P 1'
_space_group_name_Hall 'P 1'
loop_
    _symmetry_equiv_pos_as_xyz
    x,y,z
loop_
    _atom_site_label
    _atom_site_type_symbol
    _atom_site_fract_x
    _atom_site_fract_y
    _atom_site_fract_z
    _atom_site_occupancy
    H0      H    0.77271   0.72130   0.08850   1.000
    H1      H    0.66753   0.59820   0.14826   1.000
    H2      H    0.84284   0.59839   0.37566   1.000
    H3      H    0.95760   0.72150   0.32440   1.000
    H4      H    0.22733   0.72148   0.91171   1.000
    H5      H    0.33217   0.59835   0.85208   1.000
    H6      H    0.15693   0.59871   0.62466   1.000
    H7      H    0.04251   0.72184   0.67577   1.000
    H8      H    0.72746   0.77861   0.58831   1.000
    H9      H    0.83253   0.90168   0.64800   1.000
    H10     H    0.65708   0.90135   0.87539   1.000
    H11     H    0.54242   0.77826   0.82422   1.000
    H12     H    0.27271   0.77851   0.41160   1.000
    H13     H    0.16774   0.90166   0.35200   1.000
    H14     H    0.34288   0.90149   0.12444   1.000
    H15     H    0.45740   0.77833   0.17555   1.000
    H16     H    0.22727   0.27881   0.91150   1.000
    H17     H    0.33251   0.40183   0.85173   1.000
    H18     H    0.15722   0.40160   0.62433   1.000
    H19     H    0.04240   0.27854   0.67564   1.000
    H20     H    0.77256   0.27855   0.08832   1.000
    H21     H    0.66768   0.40163   0.14801   1.000
    H22     H    0.84303   0.40131   0.37537   1.000
    H23     H    0.95751   0.27823   0.32421   1.000
    H24     H    0.27244   0.22120   0.41166   1.000
    H25     H    0.16739   0.09819   0.35181   1.000
    H26     H    0.34304   0.09864   0.12453   1.000
    H27     H    0.45769   0.22167   0.17585   1.000
    H28     H    0.72733   0.22130   0.58842   1.000
    H29     H    0.83225   0.09821   0.64817   1.000
    H30     H    0.65700   0.09852   0.87565   1.000
    H31     H    0.54251   0.22164   0.82441   1.000
    C32     C    0.87367   0.73130   0.20212   1.000
    C33     C    0.79133   0.69503   0.15188   1.000
    C34     C    0.73346   0.62663   0.18468   1.000
    C35     C    0.83257   0.62710   0.31193   1.000
    C36     C    0.89427   0.69544   0.28354   1.000
    C37     C    0.12650   0.73170   0.79805   1.000
    C38     C    0.20864   0.69526   0.84830   1.000
    C39     C    0.26643   0.62689   0.81556   1.000
    C40     C    0.16740   0.62743   0.68830   1.000
    C41     C    0.10574   0.69575   0.71670   1.000
    C42     C    0.62641   0.76847   0.70191   1.000
    C43     C    0.70878   0.80481   0.65169   1.000
    C44     C    0.76663   0.87320   0.68447   1.000
    C45     C    0.66745   0.87265   0.81160   1.000
    C46     C    0.60575   0.80432   0.78331   1.000
    C47     C    0.37354   0.76848   0.29788   1.000
    C48     C    0.29132   0.80478   0.34820   1.000
    C49     C    0.23355   0.87320   0.31548   1.000
    C50     C    0.33254   0.87276   0.18816   1.000
    C51     C    0.39414   0.80439   0.21647   1.000
    C52     C    0.12635   0.26873   0.79791   1.000
    C53     C    0.20863   0.30506   0.84817   1.000
    C54     C    0.26657   0.37340   0.81532   1.000
    C55     C    0.16747   0.37291   0.68807   1.000
    C56     C    0.10571   0.30463   0.71651   1.000
    C57     C    0.87345   0.26833   0.20196   1.000
    C58     C    0.79128   0.30476   0.15168   1.000
    C59     C    0.73348   0.37312   0.18449   1.000
    C60     C    0.83257   0.37259   0.31168   1.000
    C61     C    0.89424   0.30429   0.28329   1.000
    C62     C    0.37350   0.23148   0.29807   1.000
    C63     C    0.29122   0.19501   0.34830   1.000
    C64     C    0.23331   0.12672   0.31540   1.000
    C65     C    0.33258   0.12732   0.18823   1.000
    C66     C    0.39435   0.19556   0.21670   1.000
    C67     C    0.62645   0.23143   0.70211   1.000
    C68     C    0.70870   0.19511   0.65184   1.000
    C69     C    0.76642   0.12669   0.68463   1.000
    C70     C    0.66738   0.12721   0.81191   1.000
    C71     C    0.60581   0.19557   0.78355   1.000
    N72     N    0.75293   0.59313   0.26352   1.000
    N73     N    0.24692   0.59335   0.73678   1.000
    N74     N    0.74710   0.90669   0.76327   1.000
    N75     N    0.25300   0.90675   0.23664   1.000
    N76     N    0.24709   0.40689   0.73648   1.000
    N77     N    0.75301   0.40666   0.26327   1.000
    N78     N    0.25293   0.09323   0.23661   1.000
    N79     N    0.74697   0.09321   0.76349   1.000
loop_
    _geom_bond_atom_site_label_1
    _geom_bond_atom_site_label_2
    _geom_bond_distance
    _geom_bond_site_symmetry_2
    _ccdc_geom_bond_type
    H20    C58       1.08873      .   S
    H0     C33       1.08881      .   S
    H14    C50       1.09171      .   S
    H26    C65       1.09166      .   S
    H21    C59       1.08916      .   S
    H1     C34       1.08914      .   S
    C58    C59       1.38576      .   S
    C58    C57       1.40467      .   S
    C33    C34       1.38573      .   S
    C33    C32       1.40462      .   S
    H15    C51       1.08866      .   S
    H27    C66       1.08850      .   S
    C59    N77       1.35024      .   S
    C34    N72       1.35037      .   S
    C50    C51       1.38725      .   S
    C50    N75       1.35005      .   S
    C65    C66       1.38725      .   S
    C65    N78       1.35017      .   S
    C57    C61       1.40366      .   S
    C32    C36       1.40351      .   S
    C51    C47       1.40343      .   S
    C66    C62       1.40404      .   S
    N78    C64       1.35025      .   S
    N75    C49       1.35040      .   S
    N77    C60       1.35016      .   S
    N72    C35       1.35000      .   S
    C61    C60       1.38745      .   S
    C61    H23       1.08877      .   S
    C36    C35       1.38718      .   S
    C36    H3        1.08867      .   S
    C47    C48       1.40462      .   S
    C62    C63       1.40469      .   S
    C60    H22       1.09177      .   S
    C35    H2        1.09169      .   S
    C64    C63       1.38576      .   S
    C64    H25       1.08921      .   S
    C49    C48       1.38571      .   S
    C49    H13       1.08916      .   S
    C48    H12       1.08884      .   S
    C63    H24       1.08872      .   S
    H8     C43       1.08884      .   S
    H28    C68       1.08876      .   S
    H18    C55       1.09169      .   S
    H6     C40       1.09116      .   S
    H9     C44       1.08924      .   S
    H29    C69       1.08912      .   S
    C43    C44       1.38579      .   S
    C43    C42       1.40468      .   S
    C68    C69       1.38572      .   S
    C68    C67       1.40466      .   S
    H19    C56       1.08866      .   S
    H7     C41       1.08872      .   S
    C44    N74       1.35020      .   S
    C69    N79       1.35028      .   S
    C55    C56       1.38712      .   S
    C55    N76       1.34996      .   S
    C40    C41       1.38766      .   S
    C40    N73       1.35049      .   S
    C42    C46       1.40362      .   S
    C67    C71       1.40355      .   S
    C56    C52       1.40349      .   S
    C41    C37       1.40372      .   S
    N76    C54       1.35033      .   S
    N73    C39       1.35022      .   S
    N74    C45       1.34936      .   S
    N79    C70       1.35009      .   S
    C46    C45       1.38693      .   S
    C46    H11       1.08871      .   S
    C71    C70       1.38722      .   S
    C71    H31       1.08862      .   S
    C52    C53       1.40464      .   S
    C37    C38       1.40422      .   S
    C45    H10       1.09290      .   S
    C70    H30       1.09175      .   S
    C54    C53       1.38575      .   S
    C54    H17       1.08922      .   S
    C39    C38       1.38550      .   S
    C39    H5        1.08918      .   S
    C53    H16       1.08810      .   S
    C38    H4        1.08934      .   S
