# CIF file generated by openbabel 2.4.90, see http://openbabel.sf.net
data_I
_chemical_name_common ''
_cell_length_a 12.416
_cell_length_b 15.662
_cell_length_c 15.483
_cell_angle_alpha 89.974
_cell_angle_beta 89.987
_cell_angle_gamma 90.033
_space_group_name_H-M_alt 'P 1'
_space_group_name_Hall 'P 1'
loop_
    _symmetry_equiv_pos_as_xyz
    x,y,z
loop_
    _atom_site_label
    _atom_site_type_symbol
    _atom_site_fract_x
    _atom_site_fract_y
    _atom_site_fract_z
    _atom_site_occupancy
    Cu0     Cu   0.49998   0.49997   0.50000   1.000
    Cu1     Cu   0.15690   0.99997   0.18490   1.000
    Cu2     Cu   0.84311   1.00000   0.81508   1.000
    Cu3     Cu   0.34311   0.50005   0.68492   1.000
    Cu4     Cu   0.65687   0.49993   0.31509   1.000
    Cu5     Cu   0.99998   0.00002   0.00000   1.000
    C6      C    0.93340   0.80532   0.17129   1.000
    C7      C    0.06672   0.80560   0.82900   1.000
    C8      C    0.56676   0.69442   0.67105   1.000
    C9      C    0.43321   0.69448   0.32867   1.000
    C10     C    0.06662   0.19470   0.82871   1.000
    C11     C    0.93320   0.19440   0.17104   1.000
    C12     C    0.43329   0.30541   0.32903   1.000
    C13     C    0.56685   0.30547   0.67133   1.000
    N14     N    0.98355   0.90814   0.09274   1.000
    N15     N    0.04018   0.91018   0.16671   1.000
    N16     N    0.01031   0.84612   0.21756   1.000
    N17     N    0.91586   0.84281   0.09386   1.000
    N18     N    0.01666   0.90836   0.90754   1.000
    N19     N    0.95977   0.91025   0.83368   1.000
    N20     N    0.98974   0.84635   0.78279   1.000
    N21     N    0.08442   0.84311   0.90638   1.000
    N22     N    0.51663   0.59168   0.59249   1.000
    N23     N    0.45971   0.58972   0.66636   1.000
    N24     N    0.48968   0.65364   0.71726   1.000
    N25     N    0.58425   0.65706   0.59357   1.000
    N26     N    0.48336   0.59172   0.40721   1.000
    N27     N    0.53999   0.58971   0.33320   1.000
    N28     N    0.51002   0.65368   0.28232   1.000
    N29     N    0.41578   0.65706   0.40616   1.000
    N30     N    0.01651   0.09183   0.90717   1.000
    N31     N    0.95996   0.08973   0.83315   1.000
    N32     N    0.98994   0.15377   0.78230   1.000
    N33     N    0.08401   0.15728   0.90619   1.000
    N34     N    0.98328   0.09164   0.09250   1.000
    N35     N    0.04001   0.08962   0.16647   1.000
    N36     N    0.01003   0.15354   0.21734   1.000
    N37     N    0.91558   0.15692   0.09360   1.000
    N38     N    0.48330   0.40825   0.40752   1.000
    N39     N    0.54020   0.41022   0.33363   1.000
    N40     N    0.51021   0.34630   0.28270   1.000
    N41     N    0.41562   0.34290   0.40642   1.000
    N42     N    0.51667   0.40822   0.59280   1.000
    N43     N    0.46007   0.41026   0.66682   1.000
    N44     N    0.49000   0.34626   0.71768   1.000
    N45     N    0.58423   0.34286   0.59381   1.000
    Cl46    Cl   0.21658   0.00022   0.03689   1.000
    Cl47    Cl   0.78341   0.99986   0.96309   1.000
    Cl48    Cl   0.28346   0.50010   0.53692   1.000
    Cl49    Cl   0.71650   0.49986   0.46309   1.000
loop_
    _geom_bond_atom_site_label_1
    _geom_bond_atom_site_label_2
    _geom_bond_distance
    _geom_bond_site_symmetry_2
    _ccdc_geom_bond_type
    Cl46   Cu1       2.40830  1_545   S
    N34    N37       1.32400      .   S
    N34    N35       1.34506  1_655   S
    N34    Cu5       2.03851      .   S
    N14    N17       1.32385      .   S
    N14    N15       1.34441  1_655   S
    N14    Cu5       2.04252  1_565   S
    N37    C11       1.35297      .   S
    N17    C6        1.35243      .   S
    N35    Cu1       2.03996  1_545   S
    N35    N36       1.32743      .   S
    N15    Cu1       2.03848      .   S
    N15    N16       1.32773      .   S
    C11    N36       1.35423  1_655   S
    C6     N16       1.35405  1_655   S
    N28    C9        1.35418      .   S
    N28    N27       1.32762      .   S
    N40    C12       1.35474      .   S
    N40    N39       1.32782      .   S
    Cu4    N27       2.04065      .   S
    Cu4    N39       2.03760      .   S
    Cu4    Cl49      2.40831      .   S
    C9     N29       1.35238      .   S
    C12    N41       1.35251      .   S
    N27    N26       1.34470      .   S
    N39    N38       1.34479      .   S
    N29    N26       1.32385      .   S
    N41    N38       1.32395      .   S
    N26    Cu0       2.04213      .   S
    N38    Cu0       2.03916      .   S
    Cu0    N22       2.03918      .   S
    Cu0    N42       2.04226      .   S
    Cl48   Cu3       2.40833      .   S
    N22    N25       1.32393      .   S
    N22    N23       1.34467      .   S
    N42    N45       1.32393      .   S
    N42    N43       1.34463      .   S
    N25    C8        1.35252      .   S
    N45    C13       1.35241      .   S
    N23    Cu3       2.03668      .   S
    N23    N24       1.32748      .   S
    N43    Cu3       2.04154      .   S
    N43    N44       1.32770      .   S
    C8     N24       1.35435      .   S
    C13    N44       1.35427      .   S
    N32    C10       1.35415  1_655   S
    N32    N31       1.32775      .   S
    N20    C7        1.35409  1_655   S
    N20    N19       1.32736      .   S
    Cu2    N31       2.03876  1_565   S
    Cu2    N19       2.03922      .   S
    Cu2    Cl47      2.40841      .   S
    C10    N33       1.35234      .   S
    C7     N21       1.35256      .   S
    N31    N30       1.34454  1_655   S
    N19    N18       1.34461  1_655   S
    N33    N30       1.32380      .   S
    N21    N18       1.32404      .   S
    N30    Cu5       2.04285  1_456   S
    N18    Cu5       2.03848  1_466   S
