# CIF file generated by openbabel 2.4.90, see http://openbabel.sf.net
data_I
_chemical_name_common ''
_cell_length_a 12.416
_cell_length_b 15.662
_cell_length_c 15.483
_cell_angle_alpha 89.974
_cell_angle_beta 89.987
_cell_angle_gamma 90.033
_space_group_name_H-M_alt 'P 1'
_space_group_name_Hall 'P 1'
loop_
    _symmetry_equiv_pos_as_xyz
    x,y,z
loop_
    _atom_site_label
    _atom_site_type_symbol
    _atom_site_fract_x
    _atom_site_fract_y
    _atom_site_fract_z
    _atom_site_occupancy
    C0      C    0.99998   0.00002   0.00000   1.000
    C1      C    0.49998   0.49997   0.50000   1.000
    C2      C    0.15690   0.99997   0.18490   1.000
    C3      C    0.84311   1.00000   0.81508   1.000
    C4      C    0.34311   0.50005   0.68492   1.000
    C5      C    0.65687   0.49993   0.31509   1.000
    C6      C    0.77271   0.72130   0.08850   1.000
    C7      C    0.66753   0.59820   0.14826   1.000
    C8      C    0.84284   0.59839   0.37566   1.000
    C9      C    0.95760   0.72150   0.32440   1.000
    C10     C    0.22733   0.72148   0.91171   1.000
    C11     C    0.33217   0.59835   0.85208   1.000
    C12     C    0.15693   0.59871   0.62466   1.000
    C13     C    0.04251   0.72184   0.67577   1.000
    C14     C    0.72746   0.77861   0.58831   1.000
    C15     C    0.83253   0.90168   0.64800   1.000
    C16     C    0.65708   0.90135   0.87539   1.000
    C17     C    0.54242   0.77826   0.82422   1.000
    C18     C    0.27271   0.77851   0.41160   1.000
    C19     C    0.16774   0.90166   0.35200   1.000
    C20     C    0.34288   0.90149   0.12444   1.000
    C21     C    0.45740   0.77833   0.17555   1.000
    C22     C    0.22727   0.27881   0.91150   1.000
    C23     C    0.33251   0.40183   0.85173   1.000
    C24     C    0.15722   0.40160   0.62433   1.000
    C25     C    0.04240   0.27854   0.67564   1.000
    C26     C    0.77256   0.27855   0.08832   1.000
    C27     C    0.66768   0.40163   0.14801   1.000
    C28     C    0.84303   0.40131   0.37537   1.000
    C29     C    0.95751   0.27823   0.32421   1.000
    C30     C    0.27244   0.22120   0.41166   1.000
    C31     C    0.16739   0.09819   0.35181   1.000
    C32     C    0.34304   0.09864   0.12453   1.000
    C33     C    0.45769   0.22167   0.17585   1.000
    C34     C    0.72733   0.22130   0.58842   1.000
    C35     C    0.83225   0.09821   0.64817   1.000
    C36     C    0.65700   0.09852   0.87565   1.000
    C37     C    0.54251   0.22164   0.82441   1.000
    C38     C    0.93340   0.80532   0.17129   1.000
    C39     C    0.87367   0.73130   0.20212   1.000
    C40     C    0.79133   0.69503   0.15188   1.000
    C41     C    0.73346   0.62663   0.18468   1.000
    C42     C    0.83257   0.62710   0.31193   1.000
    C43     C    0.89427   0.69544   0.28354   1.000
    C44     C    0.06672   0.80560   0.82900   1.000
    C45     C    0.12650   0.73170   0.79805   1.000
    C46     C    0.20864   0.69526   0.84830   1.000
    C47     C    0.26643   0.62689   0.81556   1.000
    C48     C    0.16740   0.62743   0.68830   1.000
    C49     C    0.10574   0.69575   0.71670   1.000
    C50     C    0.56676   0.69442   0.67105   1.000
    C51     C    0.62641   0.76847   0.70191   1.000
    C52     C    0.70878   0.80481   0.65169   1.000
    C53     C    0.76663   0.87320   0.68447   1.000
    C54     C    0.66745   0.87265   0.81160   1.000
    C55     C    0.60575   0.80432   0.78331   1.000
    C56     C    0.43321   0.69448   0.32867   1.000
    C57     C    0.37354   0.76848   0.29788   1.000
    C58     C    0.29132   0.80478   0.34820   1.000
    C59     C    0.23355   0.87320   0.31548   1.000
    C60     C    0.33254   0.87276   0.18816   1.000
    C61     C    0.39414   0.80439   0.21647   1.000
    C62     C    0.06662   0.19470   0.82871   1.000
    C63     C    0.12635   0.26873   0.79791   1.000
    C64     C    0.20863   0.30506   0.84817   1.000
    C65     C    0.26657   0.37340   0.81532   1.000
    C66     C    0.16747   0.37291   0.68807   1.000
    C67     C    0.10571   0.30463   0.71651   1.000
    C68     C    0.93320   0.19440   0.17104   1.000
    C69     C    0.87345   0.26833   0.20196   1.000
    C70     C    0.79128   0.30476   0.15168   1.000
    C71     C    0.73348   0.37312   0.18449   1.000
    C72     C    0.83257   0.37259   0.31168   1.000
    C73     C    0.89424   0.30429   0.28329   1.000
    C74     C    0.43329   0.30541   0.32903   1.000
    C75     C    0.37350   0.23148   0.29807   1.000
    C76     C    0.29122   0.19501   0.34830   1.000
    C77     C    0.23331   0.12672   0.31540   1.000
    C78     C    0.33258   0.12732   0.18823   1.000
    C79     C    0.39435   0.19556   0.21670   1.000
    C80     C    0.56685   0.30547   0.67133   1.000
    C81     C    0.62645   0.23143   0.70211   1.000
    C82     C    0.70870   0.19511   0.65184   1.000
    C83     C    0.76642   0.12669   0.68463   1.000
    C84     C    0.66738   0.12721   0.81191   1.000
    C85     C    0.60581   0.19557   0.78355   1.000
    C86     C    0.98355   0.90814   0.09274   1.000
    C87     C    0.04018   0.91018   0.16671   1.000
    C88     C    0.01031   0.84612   0.21756   1.000
    C89     C    0.91586   0.84281   0.09386   1.000
    C90     C    0.75293   0.59313   0.26352   1.000
    C91     C    0.01666   0.90836   0.90754   1.000
    C92     C    0.95977   0.91025   0.83368   1.000
    C93     C    0.98974   0.84635   0.78279   1.000
    C94     C    0.08442   0.84311   0.90638   1.000
    C95     C    0.24692   0.59335   0.73678   1.000
    C96     C    0.51663   0.59168   0.59249   1.000
    C97     C    0.45971   0.58972   0.66636   1.000
    C98     C    0.48968   0.65364   0.71726   1.000
    C99     C    0.58425   0.65706   0.59357   1.000
    C100    C    0.74710   0.90669   0.76327   1.000
    C101    C    0.48336   0.59172   0.40721   1.000
    C102    C    0.53999   0.58971   0.33320   1.000
    C103    C    0.51002   0.65368   0.28232   1.000
    C104    C    0.41578   0.65706   0.40616   1.000
    C105    C    0.25300   0.90675   0.23664   1.000
    C106    C    0.01651   0.09183   0.90717   1.000
    C107    C    0.95996   0.08973   0.83315   1.000
    C108    C    0.98994   0.15377   0.78230   1.000
    C109    C    0.08401   0.15728   0.90619   1.000
    C110    C    0.24709   0.40689   0.73648   1.000
    C111    C    0.98328   0.09164   0.09250   1.000
    C112    C    0.04001   0.08962   0.16647   1.000
    C113    C    0.01003   0.15354   0.21734   1.000
    C114    C    0.91558   0.15692   0.09360   1.000
    C115    C    0.75301   0.40666   0.26327   1.000
    C116    C    0.48330   0.40825   0.40752   1.000
    C117    C    0.54020   0.41022   0.33363   1.000
    C118    C    0.51021   0.34630   0.28270   1.000
    C119    C    0.41562   0.34290   0.40642   1.000
    C120    C    0.25293   0.09323   0.23661   1.000
    C121    C    0.51667   0.40822   0.59280   1.000
    C122    C    0.46007   0.41026   0.66682   1.000
    C123    C    0.49000   0.34626   0.71768   1.000
    C124    C    0.58423   0.34286   0.59381   1.000
    C125    C    0.74697   0.09321   0.76349   1.000
    C126    C    0.21658   0.00022   0.03689   1.000
    C127    C    0.78341   0.99986   0.96309   1.000
    C128    C    0.28346   0.50010   0.53692   1.000
    C129    C    0.71650   0.49986   0.46309   1.000
    O130    O    0.18674   0.00010   0.11090   1.000
    O131    O    0.78192   0.29166   0.12000   1.000
    O132    O    0.78202   0.70817   0.12019   1.000
    O133    O    0.94943   0.12428   0.09305   1.000
    O134    O    0.01164   0.09063   0.12949   1.000
    O135    O    0.99163   0.04583   0.04625   1.000
    O136    O    0.94970   0.87547   0.09330   1.000
    O137    O    0.01186   0.90916   0.12973   1.000
    O138    O    0.99176   0.95408   0.04637   1.000
    O139    O    0.92439   0.17566   0.13232   1.000
    O140    O    0.92463   0.82406   0.13258   1.000
    O141    O    0.33771   0.88713   0.15630   1.000
    O142    O    0.33781   0.11298   0.15638   1.000
    O143    O    0.70058   0.38737   0.16625   1.000
    O144    O    0.70050   0.61242   0.16647   1.000
    O145    O    0.76238   0.33894   0.16809   1.000
    O146    O    0.83236   0.28655   0.17682   1.000
    O147    O    0.76239   0.66083   0.16828   1.000
    O148    O    0.83250   0.71317   0.17700   1.000
    O149    O    0.09846   0.04480   0.17569   1.000
    O150    O    0.02502   0.12158   0.19191   1.000
    O151    O    0.09854   0.95508   0.17580   1.000
    O152    O    0.02524   0.87815   0.19214   1.000
    O153    O    0.90332   0.23136   0.18650   1.000
    O154    O    0.97162   0.17397   0.19419   1.000
    O155    O    0.90353   0.76831   0.18671   1.000
    O156    O    0.97185   0.82572   0.19443   1.000
    O157    O    0.42577   0.79136   0.19601   1.000
    O158    O    0.42602   0.20862   0.19628   1.000
    O159    O    0.74324   0.38989   0.22388   1.000
    O160    O    0.74319   0.60988   0.22410   1.000
    O161    O    0.20491   0.04660   0.21075   1.000
    O162    O    0.20495   0.95336   0.21077   1.000
    O163    O    0.36334   0.83858   0.20231   1.000
    O164    O    0.29277   0.88976   0.21240   1.000
    O165    O    0.36346   0.16144   0.20247   1.000
    O166    O    0.29275   0.11028   0.21242   1.000
    O167    O    0.88384   0.28631   0.24262   1.000
    O168    O    0.88397   0.71337   0.24283   1.000
    O169    O    0.38384   0.78644   0.25717   1.000
    O170    O    0.38392   0.21352   0.25739   1.000
    O171    O    0.24312   0.10997   0.27601   1.000
    O172    O    0.24327   0.88998   0.27606   1.000
    O173    O    0.79279   0.38963   0.28747   1.000
    O174    O    0.70494   0.45329   0.28918   1.000
    O175    O    0.79275   0.61011   0.28773   1.000
    O176    O    0.70490   0.54653   0.28931   1.000
    O177    O    0.47162   0.67408   0.30550   1.000
    O178    O    0.52501   0.62169   0.30776   1.000
    O179    O    0.47175   0.32586   0.30586   1.000
    O180    O    0.52521   0.37826   0.30816   1.000
    O181    O    0.86341   0.33844   0.29748   1.000
    O182    O    0.92587   0.29126   0.30375   1.000
    O183    O    0.86342   0.66127   0.29773   1.000
    O184    O    0.92594   0.70847   0.30397   1.000
    O185    O    0.40337   0.73148   0.31327   1.000
    O186    O    0.33243   0.78663   0.32304   1.000
    O187    O    0.40339   0.26845   0.31355   1.000
    O188    O    0.33236   0.21325   0.32319   1.000
    O189    O    0.83780   0.38695   0.34352   1.000
    O190    O    0.83770   0.61274   0.34380   1.000
    O191    O    0.59843   0.54482   0.32415   1.000
    O192    O    0.59853   0.45507   0.32436   1.000
    O193    O    0.68668   0.49990   0.38909   1.000
    O194    O    0.26226   0.16086   0.33185   1.000
    O195    O    0.20035   0.11246   0.33361   1.000
    O196    O    0.26243   0.83899   0.33184   1.000
    O197    O    0.20065   0.88743   0.33374   1.000
    O198    O    0.42449   0.67577   0.36742   1.000
    O199    O    0.42446   0.32416   0.36773   1.000
    O200    O    0.51167   0.59072   0.37021   1.000
    O201    O    0.51175   0.40924   0.37057   1.000
    O202    O    0.28201   0.79165   0.37990   1.000
    O203    O    0.28183   0.20810   0.37998   1.000
    O204    O    0.44957   0.62439   0.40669   1.000
    O205    O    0.44946   0.37558   0.40697   1.000
    O206    O    0.49167   0.54584   0.45361   1.000
    O207    O    0.49164   0.45411   0.45376   1.000
    O208    O    0.50831   0.54582   0.54625   1.000
    O209    O    0.50833   0.45409   0.54640   1.000
    O210    O    0.31328   0.50007   0.61092   1.000
    O211    O    0.71812   0.79171   0.62000   1.000
    O212    O    0.71801   0.20820   0.62013   1.000
    O213    O    0.55044   0.62437   0.59303   1.000
    O214    O    0.48817   0.59070   0.62943   1.000
    O215    O    0.55045   0.37554   0.59330   1.000
    O216    O    0.48837   0.40924   0.62981   1.000
    O217    O    0.57550   0.67574   0.63231   1.000
    O218    O    0.57554   0.32416   0.63257   1.000
    O219    O    0.16235   0.38725   0.65620   1.000
    O220    O    0.16216   0.61307   0.65648   1.000
    O221    O    0.79958   0.88744   0.66624   1.000
    O222    O    0.79934   0.11245   0.66640   1.000
    O223    O    0.73771   0.83901   0.66808   1.000
    O224    O    0.66759   0.78664   0.67680   1.000
    O225    O    0.73756   0.16090   0.66823   1.000
    O226    O    0.66757   0.21327   0.67697   1.000
    O227    O    0.40141   0.54489   0.67564   1.000
    O228    O    0.47470   0.62168   0.69181   1.000
    O229    O    0.40159   0.45515   0.67587   1.000
    O230    O    0.47504   0.37826   0.69225   1.000
    O231    O    0.59658   0.73145   0.68648   1.000
    O232    O    0.52822   0.67403   0.69415   1.000
    O233    O    0.59665   0.26845   0.68672   1.000
    O234    O    0.52843   0.32587   0.69451   1.000
    O235    O    0.07406   0.29158   0.69607   1.000
    O236    O    0.07413   0.70880   0.69624   1.000
    O237    O    0.75687   0.88994   0.72387   1.000
    O238    O    0.75670   0.10995   0.72406   1.000
    O239    O    0.29510   0.45347   0.71070   1.000
    O240    O    0.29501   0.54670   0.71085   1.000
    O241    O    0.13659   0.33877   0.70229   1.000
    O242    O    0.20728   0.38990   0.71227   1.000
    O243    O    0.13657   0.66159   0.70250   1.000
    O244    O    0.20716   0.61039   0.71254   1.000
    O245    O    0.61608   0.78640   0.74261   1.000
    O246    O    0.61613   0.21350   0.74283   1.000
    O247    O    0.11603   0.28668   0.75721   1.000
    O248    O    0.11612   0.71373   0.75738   1.000
    O249    O    0.25683   0.39015   0.77590   1.000
    O250    O    0.25668   0.61012   0.77617   1.000
    O251    O    0.70728   0.88967   0.78743   1.000
    O252    O    0.79511   0.95334   0.78918   1.000
    O253    O    0.70717   0.11021   0.78770   1.000
    O254    O    0.79504   0.04660   0.78929   1.000
    O255    O    0.02828   0.17423   0.80551   1.000
    O256    O    0.97495   0.12175   0.80773   1.000
    O257    O    0.02823   0.82598   0.80589   1.000
    O258    O    0.97475   0.87830   0.80823   1.000
    O259    O    0.63660   0.83849   0.79745   1.000
    O260    O    0.57409   0.79129   0.80377   1.000
    O261    O    0.63659   0.16139   0.79773   1.000
    O262    O    0.57416   0.20861   0.80398   1.000
    O263    O    0.09649   0.23172   0.81331   1.000
    O264    O    0.16749   0.28690   0.82304   1.000
    O265    O    0.09661   0.76865   0.81353   1.000
    O266    O    0.16757   0.71348   0.82318   1.000
    O267    O    0.66226   0.88700   0.84349   1.000
    O268    O    0.66219   0.11286   0.84378   1.000
    O269    O    0.90154   0.04486   0.82412   1.000
    O270    O    0.90144   0.95512   0.82438   1.000
    O271    O    0.81326   0.99993   0.88909   1.000
    O272    O    0.23760   0.33923   0.83175   1.000
    O273    O    0.29954   0.38762   0.83353   1.000
    O274    O    0.23754   0.66108   0.83193   1.000
    O275    O    0.29930   0.61262   0.83382   1.000
    O276    O    0.07531   0.17599   0.86745   1.000
    O277    O    0.07557   0.82436   0.86769   1.000
    O278    O    0.98823   0.09078   0.87016   1.000
    O279    O    0.98822   0.90930   0.87061   1.000
    O280    O    0.21795   0.29194   0.87984   1.000
    O281    O    0.21799   0.70837   0.88001   1.000
    O282    O    0.05026   0.12456   0.90668   1.000
    O283    O    0.05054   0.87573   0.90696   1.000
    O284    O    0.00824   0.04592   0.95359   1.000
    O285    O    0.00832   0.95419   0.95377   1.000
loop_
    _geom_bond_atom_site_label_1
    _geom_bond_atom_site_label_2
    _geom_bond_distance
    _geom_bond_site_symmetry_2
    _ccdc_geom_bond_type
    C126   O130      1.20415      .   S
    C2     O130      1.20415  1_565   S
    C26    O131      0.54437      .   S
    C70    O131      0.54437      .   S
    C6     O132      0.54441      .   S
    C40    O132      0.54441      .   S
    C111   O133      0.66200      .   S
    C114   O133      0.66200      .   S
    C111   O134      0.67253  1_655   S
    C112   O134      0.67253      .   S
    C111   O135      1.01926      .   S
    C0     O135      1.01926      .   S
    C86    O136      0.66193      .   S
    C89    O136      0.66193      .   S
    C86    O137      0.67221  1_655   S
    C87    O137      0.67221      .   S
    C86    O138      1.02126      .   S
    C0     O138      1.02126  1_545   S
    C114   O139      0.67649      .   S
    C68    O139      0.67649      .   S
    C89    O140      0.67622      .   S
    C38    O140      0.67622      .   S
    C20    O141      0.54586      .   S
    C60    O141      0.54586      .   S
    C32    O142      0.54583      .   S
    C78    O142      0.54583      .   S
    C27    O143      0.54458      .   S
    C71    O143      0.54458      .   S
    C7     O144      0.54457      .   S
    C41    O144      0.54457      .   S
    C70    O145      0.69288      .   S
    C71    O145      0.69288      .   S
    C70    O146      0.70233      .   S
    C69    O146      0.70233      .   S
    C40    O147      0.69287      .   S
    C41    O147      0.69287      .   S
    C40    O148      0.70231      .   S
    C39    O148      0.70231      .   S
    C112   O149      1.01998      .   S
    C2     O149      1.01998  1_565   S
    C112   O150      0.66372      .   S
    C113   O150      0.66372      .   S
    C87    O151      1.01924      .   S
    C2     O151      1.01924      .   S
    C87    O152      0.66387      .   S
    C88    O152      0.66387      .   S
    C68    O153      0.72830      .   S
    C69    O153      0.72830      .   S
    C68    O154      0.67712      .   S
    C113   O154      0.67712  1_455   S
    C38    O155      0.72801      .   S
    C39    O155      0.72801      .   S
    C38    O156      0.67703      .   S
    C88    O156      0.67703  1_455   S
    C21    O157      0.54433      .   S
    C61    O157      0.54433      .   S
    C33    O158      0.54425      .   S
    C79    O158      0.54425      .   S
    C71    O159      0.67512      .   S
    C115   O159      0.67512      .   S
    C41    O160      0.67519      .   S
    C90    O160      0.67519      .   S
    C2     O161      1.02414  1_565   S
    C120   O161      1.02414      .   S
    C2     O162      1.02450      .   S
    C105   O162      1.02450      .   S
    C60    O163      0.69362      .   S
    C61    O163      0.69362      .   S
    C60    O164      0.67503      .   S
    C105   O164      0.67503      .   S
    C78    O165      0.69363      .   S
    C79    O165      0.69363      .   S
    C78    O166      0.67508      .   S
    C120   O166      0.67508      .   S
    C69    O167      0.70183      .   S
    C73    O167      0.70183      .   S
    C39    O168      0.70176      .   S
    C43    O168      0.70176      .   S
    C61    O169      0.70171      .   S
    C57    O169      0.70171      .   S
    C79    O170      0.70202      .   S
    C75    O170      0.70202      .   S
    C120   O171      0.67512      .   S
    C77    O171      0.67512      .   S
    C105   O172      0.67520      .   S
    C59    O172      0.67520      .   S
    C115   O173      0.67508      .   S
    C72    O173      0.67508      .   S
    C115   O174      1.02533      .   S
    C5     O174      1.02533      .   S
    C90    O175      0.67500      .   S
    C42    O175      0.67500      .   S
    C90    O176      1.02319      .   S
    C5     O176      1.02319      .   S
    C103   O177      0.67709      .   S
    C56    O177      0.67709      .   S
    C103   O178      0.66381      .   S
    C102   O178      0.66381      .   S
    C118   O179      0.67737      .   S
    C74    O179      0.67737      .   S
    C118   O180      0.66391      .   S
    C117   O180      0.66391      .   S
    C73    O181      0.69373      .   S
    C72    O181      0.69373      .   S
    C73    O182      0.54438      .   S
    C29    O182      0.54438      .   S
    C43    O183      0.69359      .   S
    C42    O183      0.69359      .   S
    C43    O184      0.54433      .   S
    C9     O184      0.54433      .   S
    C57    O185      0.72804      .   S
    C56    O185      0.72804      .   S
    C57    O186      0.70231      .   S
    C58    O186      0.70231      .   S
    C75    O187      0.72827      .   S
    C74    O187      0.72827      .   S
    C75    O188      0.70235      .   S
    C76    O188      0.70235      .   S
    C72    O189      0.54588      .   S
    C28    O189      0.54588      .   S
    C42    O190      0.54585      .   S
    C8     O190      0.54585      .   S
    C5     O191      1.02032      .   S
    C102   O191      1.02032      .   S
    C5     O192      1.01880      .   S
    C117   O192      1.01880      .   S
    C5     O193      1.20415      .   S
    C129   O193      1.20415      .   S
    C77    O194      0.69288      .   S
    C76    O194      0.69288      .   S
    C77    O195      0.54461      .   S
    C31    O195      0.54461      .   S
    C59    O196      0.69285      .   S
    C58    O196      0.69285      .   S
    C59    O197      0.54458      .   S
    C19    O197      0.54458      .   S
    C56    O198      0.67619      .   S
    C104   O198      0.67619      .   S
    C74    O199      0.67625      .   S
    C119   O199      0.67625      .   S
    C102   O200      0.67235      .   S
    C101   O200      0.67235      .   S
    C117   O201      0.67240      .   S
    C116   O201      0.67240      .   S
    C58    O202      0.54442      .   S
    C18    O202      0.54442      .   S
    C76    O203      0.54436      .   S
    C30    O203      0.54436      .   S
    C104   O204      0.66192      .   S
    C101   O204      0.66192      .   S
    C119   O205      0.66198      .   S
    C116   O205      0.66198      .   S
    C101   O206      1.02107      .   S
    C1     O206      1.02107      .   S
    C116   O207      1.01958      .   S
    C1     O207      1.01958      .   S
    C1     O208      1.01959      .   S
    C96    O208      1.01959      .   S
    C1     O209      1.02113      .   S
    C121   O209      1.02113      .   S
    C128   O210      1.20416      .   S
    C4     O210      1.20416      .   S
    C14    O211      0.54442      .   S
    C52    O211      0.54442      .   S
    C34    O212      0.54438      .   S
    C82    O212      0.54438      .   S
    C96    O213      0.66196      .   S
    C99    O213      0.66196      .   S
    C96    O214      0.67233      .   S
    C97    O214      0.67233      .   S
    C121   O215      0.66197      .   S
    C124   O215      0.66197      .   S
    C121   O216      0.67232      .   S
    C122   O216      0.67232      .   S
    C99    O217      0.67626      .   S
    C50    O217      0.67626      .   S
    C124   O218      0.67621      .   S
    C80    O218      0.67621      .   S
    C24    O219      0.54584      .   S
    C66    O219      0.54584      .   S
    C12    O220      0.54558      .   S
    C48    O220      0.54558      .   S
    C15    O221      0.54462      .   S
    C53    O221      0.54462      .   S
    C35    O222      0.54456      .   S
    C83    O222      0.54456      .   S
    C52    O223      0.69290      .   S
    C53    O223      0.69290      .   S
    C52    O224      0.70234      .   S
    C51    O224      0.70234      .   S
    C82    O225      0.69286      .   S
    C83    O225      0.69286      .   S
    C82    O226      0.70233      .   S
    C81    O226      0.70233      .   S
    C97    O227      1.01834      .   S
    C4     O227      1.01834      .   S
    C97    O228      0.66374      .   S
    C98    O228      0.66374      .   S
    C122   O229      1.02077      .   S
    C4     O229      1.02077      .   S
    C122   O230      0.66385      .   S
    C123   O230      0.66385      .   S
    C50    O231      0.72826      .   S
    C51    O231      0.72826      .   S
    C50    O232      0.67718      .   S
    C98    O232      0.67718      .   S
    C80    O233      0.72806      .   S
    C81    O233      0.72806      .   S
    C80    O234      0.67714      .   S
    C123   O234      0.67714      .   S
    C25    O235      0.54433      .   S
    C67    O235      0.54433      .   S
    C13    O236      0.54436      .   S
    C49    O236      0.54436      .   S
    C53    O237      0.67510      .   S
    C100   O237      0.67510      .   S
    C83    O238      0.67514      .   S
    C125   O238      0.67514      .   S
    C4     O239      1.02272      .   S
    C110   O239      1.02272      .   S
    C4     O240      1.02575      .   S
    C95    O240      1.02575      .   S
    C66    O241      0.69356      .   S
    C67    O241      0.69356      .   S
    C66    O242      0.67498      .   S
    C110   O242      0.67498      .   S
    C48    O243      0.69383      .   S
    C49    O243      0.69383      .   S
    C48    O244      0.67524      .   S
    C95    O244      0.67524      .   S
    C51    O245      0.70181      .   S
    C55    O245      0.70181      .   S
    C81    O246      0.70178      .   S
    C85    O246      0.70178      .   S
    C67    O247      0.70174      .   S
    C63    O247      0.70174      .   S
    C49    O248      0.70186      .   S
    C45    O248      0.70186      .   S
    C110   O249      0.67517      .   S
    C65    O249      0.67517      .   S
    C95    O250      0.67511      .   S
    C47    O250      0.67511      .   S
    C100   O251      0.67468      .   S
    C54    O251      0.67468      .   S
    C100   O252      1.02467      .   S
    C3     O252      1.02467      .   S
    C125   O253      0.67505      .   S
    C84    O253      0.67505      .   S
    C125   O254      1.02418      .   S
    C3     O254      1.02418  1_565   S
    C108   O255      0.67707  1_655   S
    C62    O255      0.67707      .   S
    C108   O256      0.66387      .   S
    C107   O256      0.66387      .   S
    C93    O257      0.67704  1_655   S
    C44    O257      0.67704      .   S
    C93    O258      0.66368      .   S
    C92    O258      0.66368      .   S
    C55    O259      0.69347      .   S
    C54    O259      0.69347      .   S
    C55    O260      0.54435      .   S
    C17    O260      0.54435      .   S
    C85    O261      0.69361      .   S
    C84    O261      0.69361      .   S
    C85    O262      0.54431      .   S
    C37    O262      0.54431      .   S
    C63    O263      0.72805      .   S
    C62    O263      0.72805      .   S
    C63    O264      0.70232      .   S
    C64    O264      0.70232      .   S
    C45    O265      0.72826      .   S
    C44    O265      0.72826      .   S
    C45    O266      0.70211      .   S
    C46    O266      0.70211      .   S
    C54    O267      0.54645      .   S
    C16    O267      0.54645      .   S
    C84    O268      0.54588      .   S
    C36    O268      0.54588      .   S
    C3     O269      1.01938  1_565   S
    C107   O269      1.01938      .   S
    C3     O270      1.01961      .   S
    C92    O270      1.01961      .   S
    C3     O271      1.20421      .   S
    C127   O271      1.20421      .   S
    C65    O272      0.69287      .   S
    C64    O272      0.69287      .   S
    C65    O273      0.54461      .   S
    C23    O273      0.54461      .   S
    C47    O274      0.69275      .   S
    C46    O274      0.69275      .   S
    C47    O275      0.54459      .   S
    C11    O275      0.54459      .   S
    C62    O276      0.67617      .   S
    C109   O276      0.67617      .   S
    C44    O277      0.67628      .   S
    C94    O277      0.67628      .   S
    C107   O278      0.67227      .   S
    C106   O278      0.67227  1_455   S
    C92    O279      0.67230      .   S
    C91    O279      0.67230  1_455   S
    C64    O280      0.54405      .   S
    C22    O280      0.54405      .   S
    C46    O281      0.54467      .   S
    C10    O281      0.54467      .   S
    C109   O282      0.66190      .   S
    C106   O282      0.66190      .   S
    C94    O283      0.66202      .   S
    C91    O283      0.66202      .   S
    C106   O284      1.02142      .   S
    C0     O284      1.02142  1_654   S
    C91    O285      1.01924      .   S
    C0     O285      1.01924  1_644   S
