# CIF file generated by openbabel 2.4.90, see http://openbabel.sf.net
data_I
_chemical_name_common 'VESTA_phase_1'
_cell_length_a 14.609
_cell_length_b 21.986
_cell_length_c 21.972
_cell_angle_alpha 60.764
_cell_angle_beta 90.014
_cell_angle_gamma 89.993
_space_group_name_H-M_alt 'P 1'
_space_group_name_Hall 'P 1'
loop_
    _symmetry_equiv_pos_as_xyz
    x,y,z
loop_
    _atom_site_label
    _atom_site_type_symbol
    _atom_site_fract_x
    _atom_site_fract_y
    _atom_site_fract_z
    _atom_site_occupancy
    In0     In   0.99984   0.99968   0.50010   1.000
    In1     In   0.49986   0.99968   0.50010   1.000
    In2     In   0.25017   0.99969   0.50009   1.000
    In3     In   0.75018   0.99969   0.50009   1.000
    In4     In   0.24994   0.50191   0.00000   1.000
    In5     In   0.74995   0.50191   0.00000   1.000
    In6     In   0.00014   0.50184   0.00000   1.000
    In7     In   0.50015   0.50184   0.00000   1.000
    In8     In   0.00005   0.99806   0.00240   1.000
    In9     In   0.50006   0.99806   0.00247   1.000
    In10    In   0.24993   0.99795   0.00256   1.000
    In11    In   0.74994   0.99794   0.00256   1.000
    H12     H    0.22806   0.79861   0.68632   1.000
    H13     H    0.72807   0.79861   0.68632   1.000
    H14     H    0.02199   0.96678   0.32300   1.000
    H15     H    0.52200   0.96678   0.32304   1.000
    H16     H    0.02200   0.96234   0.21074   1.000
    H17     H    0.52202   0.96234   0.21074   1.000
    H18     H    0.47808   0.20255   0.31522   1.000
    H19     H    0.97809   0.20255   0.31522   1.000
    H20     H    0.27190   0.03072   0.67836   1.000
    H21     H    0.77191   0.03072   0.67836   1.000
    H22     H    0.27192   0.03351   0.79123   1.000
    H23     H    0.77194   0.03351   0.79123   1.000
    H24     H    0.02182   0.68498   0.79890   1.000
    H25     H    0.52183   0.68498   0.79890   1.000
    H26     H    0.22804   0.32268   0.96821   1.000
    H27     H    0.72805   0.32269   0.96821   1.000
    H28     H    0.22804   0.20996   0.96567   1.000
    H29     H    0.72805   0.20996   0.96567   1.000
    H30     H    0.27193   0.31550   0.20295   1.000
    H31     H    0.77194   0.31550   0.20295   1.000
    H32     H    0.47788   0.67896   0.03192   1.000
    H33     H    0.97789   0.67897   0.03192   1.000
    H34     H    0.47803   0.79060   0.03743   1.000
    H35     H    0.97804   0.79060   0.03743   1.000
    H36     H    0.27187   0.20213   0.31507   1.000
    H37     H    0.77188   0.20213   0.31507   1.000
    H38     H    0.47813   0.03110   0.67810   1.000
    H39     H    0.97814   0.03110   0.67810   1.000
    H40     H    0.47807   0.03390   0.79097   1.000
    H41     H    0.97809   0.03390   0.79097   1.000
    H42     H    0.02198   0.79747   0.68557   1.000
    H43     H    0.52199   0.79747   0.68557   1.000
    H44     H    0.22809   0.96696   0.32289   1.000
    H45     H    0.72811   0.96696   0.32280   1.000
    H46     H    0.22810   0.96251   0.21060   1.000
    H47     H    0.72811   0.96250   0.21060   1.000
    H48     H    0.47814   0.31596   0.20313   1.000
    H49     H    0.97815   0.31596   0.20313   1.000
    H50     H    0.27182   0.67775   0.03391   1.000
    H51     H    0.77184   0.67775   0.03391   1.000
    H52     H    0.27192   0.78947   0.03929   1.000
    H53     H    0.77194   0.78947   0.03928   1.000
    H54     H    0.22802   0.68621   0.79970   1.000
    H55     H    0.72803   0.68621   0.79970   1.000
    H56     H    0.02184   0.32228   0.96883   1.000
    H57     H    0.52185   0.32228   0.96880   1.000
    H58     H    0.02175   0.20961   0.96620   1.000
    H59     H    0.52177   0.20961   0.96620   1.000
    H60     H    0.37533   0.45796   0.10071   1.000
    H61     H    0.87535   0.45796   0.10071   1.000
    H62     H    0.12507   0.89977   0.54029   1.000
    H63     H    0.62509   0.89977   0.54029   1.000
    H64     H    0.37497   0.09981   0.45949   1.000
    H65     H    0.87498   0.09980   0.45949   1.000
    H66     H    0.12536   0.46390   0.93737   1.000
    H67     H    0.62538   0.46390   0.93737   1.000
    H68     H    0.12505   0.08092   0.00991   1.000
    H69     H    0.62506   0.08092   0.00991   1.000
    H70     H    0.37494   0.98953   0.92014   1.000
    H71     H    0.87496   0.98954   0.92014   1.000
    C72     C    0.29199   0.77312   0.71114   1.000
    C73     C    0.79200   0.77313   0.71114   1.000
    C74     C    0.45819   0.96555   0.29803   1.000
    C75     C    0.95821   0.96554   0.29800   1.000
    C76     C    0.45821   0.96291   0.23600   1.000
    C77     C    0.95823   0.96292   0.23607   1.000
    C78     C    0.04204   0.22805   0.29057   1.000
    C79     C    0.54205   0.22805   0.29057   1.000
    C80     C    0.20806   0.03166   0.70340   1.000
    C81     C    0.70808   0.03166   0.70346   1.000
    C82     C    0.20796   0.03311   0.76602   1.000
    C83     C    0.70797   0.03311   0.76602   1.000
    C84     C    0.45802   0.71026   0.77358   1.000
    C85     C    0.95804   0.71025   0.77358   1.000
    C86     C    0.29200   0.29777   0.96727   1.000
    C87     C    0.79202   0.29776   0.96720   1.000
    C88     C    0.29201   0.23512   0.96606   1.000
    C89     C    0.79203   0.23513   0.96605   1.000
    C90     C    0.20795   0.29064   0.22824   1.000
    C91     C    0.70797   0.29064   0.22824   1.000
    C92     C    0.04171   0.70346   0.03390   1.000
    C93     C    0.54173   0.70347   0.03394   1.000
    C94     C    0.04178   0.76509   0.03712   1.000
    C95     C    0.54179   0.76509   0.03713   1.000
    C96     C    0.20793   0.22781   0.29048   1.000
    C97     C    0.70794   0.22781   0.29048   1.000
    C98     C    0.04194   0.03188   0.70332   1.000
    C99     C    0.54195   0.03188   0.70332   1.000
    C100    C    0.04203   0.03333   0.76588   1.000
    C101    C    0.54205   0.03333   0.76588   1.000
    C102    C    0.45800   0.77248   0.71071   1.000
    C103    C    0.95802   0.77248   0.71070   1.000
    C104    C    0.29190   0.96565   0.29795   1.000
    C105    C    0.79192   0.96564   0.29795   1.000
    C106    C    0.29189   0.96300   0.23600   1.000
    C107    C    0.79191   0.96301   0.23599   1.000
    C108    C    0.04208   0.29090   0.22834   1.000
    C109    C    0.54209   0.29090   0.22834   1.000
    C110    C    0.20802   0.70279   0.03500   1.000
    C111    C    0.70804   0.70279   0.03505   1.000
    C112    C    0.20809   0.76445   0.03818   1.000
    C113    C    0.70811   0.76445   0.03818   1.000
    C114    C    0.29187   0.71094   0.77404   1.000
    C115    C    0.79188   0.71094   0.77400   1.000
    C116    C    0.45787   0.29754   0.96761   1.000
    C117    C    0.95789   0.29753   0.96762   1.000
    C118    C    0.45782   0.23493   0.96637   1.000
    C119    C    0.95783   0.23493   0.96636   1.000
    C120    C    0.37505   0.87247   0.61233   1.000
    C121    C    0.87507   0.87247   0.61230   1.000
    C122    C    0.37502   0.80445   0.67903   1.000
    C123    C    0.87504   0.80445   0.67903   1.000
    C124    C    0.37503   0.97360   0.39400   1.000
    C125    C    0.87504   0.97360   0.39000   1.000
    C126    C    0.37504   0.96745   0.32904   1.000
    C127    C    0.87506   0.96745   0.32904   1.000
    C128    C    0.37506   0.96222   0.20442   1.000
    C129    C    0.87507   0.96222   0.20442   1.000
    C130    C    0.37505   0.96444   0.13527   1.000
    C131    C    0.87506   0.96444   0.13527   1.000
    C132    C    0.12496   0.12733   0.38830   1.000
    C133    C    0.62497   0.12733   0.38830   1.000
    C134    C    0.12497   0.19595   0.32214   1.000
    C135    C    0.62498   0.19595   0.32214   1.000
    C136    C    0.12501   0.02556   0.60632   1.000
    C137    C    0.62502   0.02556   0.60632   1.000
    C138    C    0.12500   0.03043   0.67203   1.000
    C139    C    0.62502   0.03043   0.67203   1.000
    C140    C    0.12499   0.03339   0.79806   1.000
    C141    C    0.62500   0.03338   0.79806   1.000
    C142    C    0.12497   0.03054   0.86762   1.000
    C143    C    0.62499   0.03054   0.86762   1.000
    C144    C    0.37484   0.61325   0.87445   1.000
    C145    C    0.87486   0.61325   0.87445   1.000
    C146    C    0.37492   0.67923   0.80573   1.000
    C147    C    0.87493   0.67923   0.80573   1.000
    C148    C    0.37509   0.39511   0.97311   1.000
    C149    C    0.87510   0.39511   0.97311   1.000
    C150    C    0.37495   0.32927   0.96853   1.000
    C151    C    0.87496   0.32927   0.96853   1.000
    C152    C    0.37490   0.20289   0.96611   1.000
    C153    C    0.87492   0.20289   0.96610   1.000
    C154    C    0.37493   0.13317   0.96922   1.000
    C155    C    0.87494   0.13317   0.96923   1.000
    C156    C    0.12512   0.38969   0.12864   1.000
    C157    C    0.62513   0.38969   0.12864   1.000
    C158    C    0.12503   0.32276   0.19666   1.000
    C159    C    0.62505   0.32276   0.19666   1.000
    C160    C    0.12481   0.60787   0.02541   1.000
    C161    C    0.62482   0.60787   0.02541   1.000
    C162    C    0.12484   0.67226   0.03236   1.000
    C163    C    0.62486   0.67226   0.03236   1.000
    C164    C    0.12497   0.79622   0.03866   1.000
    C165    C    0.62499   0.79622   0.03866   1.000
    C166    C    0.12505   0.86520   0.03674   1.000
    C167    C    0.62506   0.86520   0.03674   1.000
    O168    O    0.45299   0.89873   0.58676   1.000
    O169    O    0.95300   0.89873   0.58676   1.000
    O170    O    0.45310   0.97615   0.41865   1.000
    O171    O    0.95312   0.97615   0.41865   1.000
    O172    O    0.45295   0.96589   0.10844   1.000
    O173    O    0.95296   0.96589   0.10844   1.000
    O174    O    0.20293   0.10099   0.41350   1.000
    O175    O    0.70295   0.10099   0.41350   1.000
    O176    O    0.20309   0.02351   0.58149   1.000
    O177    O    0.70310   0.02351   0.58149   1.000
    O178    O    0.20301   0.02888   0.89460   1.000
    O179    O    0.70303   0.02888   0.89460   1.000
    O180    O    0.29685   0.58897   0.90126   1.000
    O181    O    0.79687   0.58897   0.90126   1.000
    O182    O    0.29714   0.42067   0.97440   1.000
    O183    O    0.79716   0.42067   0.97444   1.000
    O184    O    0.29690   0.10632   0.97090   1.000
    O185    O    0.79691   0.10632   0.97090   1.000
    O186    O    0.04712   0.41550   0.10270   1.000
    O187    O    0.54713   0.41550   0.10270   1.000
    O188    O    0.04685   0.58401   0.02137   1.000
    O189    O    0.54687   0.58401   0.02137   1.000
    O190    O    0.04716   0.89205   0.03529   1.000
    O191    O    0.54718   0.89205   0.03520   1.000
    O192    O    0.04701   0.10100   0.41355   1.000
    O193    O    0.54702   0.10100   0.41355   1.000
    O194    O    0.04692   0.02363   0.58141   1.000
    O195    O    0.54693   0.02363   0.58141   1.000
    O196    O    0.04694   0.02910   0.89448   1.000
    O197    O    0.54695   0.02910   0.89448   1.000
    O198    O    0.29711   0.89876   0.58673   1.000
    O199    O    0.79713   0.89876   0.58673   1.000
    O200    O    0.29696   0.97618   0.41861   1.000
    O201    O    0.79697   0.97618   0.41861   1.000
    O202    O    0.29711   0.96584   0.10848   1.000
    O203    O    0.79712   0.96584   0.10848   1.000
    O204    O    0.20323   0.41479   0.10241   1.000
    O205    O    0.70325   0.41479   0.10241   1.000
    O206    O    0.20269   0.58260   0.02367   1.000
    O207    O    0.70270   0.58260   0.02367   1.000
    O208    O    0.20297   0.89185   0.03558   1.000
    O209    O    0.70298   0.89185   0.03558   1.000
    O210    O    0.45272   0.58731   0.90013   1.000
    O211    O    0.95274   0.58731   0.90013   1.000
    O212    O    0.45326   0.41961   0.97580   1.000
    O213    O    0.95327   0.41961   0.97580   1.000
    O214    O    0.45301   0.10637   0.97087   1.000
    O215    O    0.95303   0.10637   0.97087   1.000
    O216    O    0.37500   0.05202   0.49790   1.000
    O217    O    0.87501   0.05202   0.49790   1.000
    O218    O    0.12502   0.94779   0.50232   1.000
    O219    O    0.62504   0.94779   0.50232   1.000
    O220    O    0.37514   0.49698   0.05323   1.000
    O221    O    0.87516   0.49698   0.05323   1.000
    O222    O    0.12513   0.50116   0.94933   1.000
    O223    O    0.62514   0.50116   0.94933   1.000
    O224    O    0.37501   0.97150   0.97044   1.000
    O225    O    0.87503   0.97150   0.97044   1.000
    O226    O    0.12500   0.03053   0.02880   1.000
    O227    O    0.62502   0.03053   0.02880   1.000
loop_
    _geom_bond_atom_site_label_1
    _geom_bond_atom_site_label_2
    _geom_bond_distance
    _geom_bond_site_symmetry_2
    _ccdc_geom_bond_type
    In4    O180      2.18744  1_554   S
    In4    O222      2.14040  1_554   S
    In5    O181      2.18743  1_554   S
    In5    O223      2.14041  1_554   S
    In6    O188      2.18593      .   S
    In6    O221      2.14293  1_455   S
    In7    O189      2.18594      .   S
    In7    O220      2.14327      .   S
    In8    O190      2.18699      .   S
    In8    O225      2.13785  1_454   S
    In9    O227      2.13999  1_565   S
    In9    O191      2.18766      .   S
    In9    O224      2.13893  1_554   S
    In11   O203      2.18722      .   S
    In10   O226      2.14007  1_565   S
    In10   O202      2.18722      .   S
    H68    O226      0.97493      .   S
    H69    O227      0.97493      .   S
    O188   C160      1.27506      .   S
    O189   C161      1.27505      .   S
    O206   C160      1.27489      .   S
    O207   C161      1.27486      .   S
    C160   C162      1.49612      .   S
    C161   C163      1.49614      .   S
    H33    C92       1.08825  1_655   S
    H32    C93       1.08891      .   S
    C162   C92       1.40326      .   S
    C162   C110      1.40318      .   S
    C163   C93       1.40353      .   S
    C163   C111      1.40350      .   S
    C92    C94       1.39092      .   S
    H50    C110      1.08855      .   S
    H51    C111      1.08889      .   S
    C93    C95       1.39047      .   S
    C110   C112      1.39119      .   S
    C111   C113      1.39050      .   S
    O191   C167      1.27450      .   S
    O190   C166      1.27490      .   S
    O208   C166      1.27487      .   S
    O209   C167      1.27487      .   S
    C167   C165      1.49647      .   S
    C166   C164      1.49647      .   S
    C94    H35       1.08860  1_455   S
    C94    C164      1.40341      .   S
    C95    H34       1.08894      .   S
    C95    C165      1.40338      .   S
    C113   C165      1.40341      .   S
    C113   H53       1.08895      .   S
    C112   C164      1.40338      .   S
    C112   H52       1.08897      .   S
    O221   H61       0.97472      .   S
    O220   H60       0.97472      .   S
    O205   C157      1.27619      .   S
    O204   C156      1.27620      .   S
    O186   C156      1.27631      .   S
    O187   C157      1.27631      .   S
    O172   C130      1.27504      .   S
    O173   C131      1.27501      .   S
    O202   C130      1.27509      .   S
    O203   C131      1.27506      .   S
    C157   C159      1.50024      .   S
    C156   C158      1.50024      .   S
    C130   C128      1.49613      .   S
    C131   C129      1.49616      .   S
    C158   C90       1.40295      .   S
    C158   C108      1.40292      .   S
    C159   C91       1.40295      .   S
    C159   C109      1.40292      .   S
    H30    C90       1.08846      .   S
    H31    C91       1.08845      .   S
    H49    C108      1.08815  1_655   S
    H48    C109      1.08851      .   S
    C129   C107      1.40348      .   S
    C129   C77       1.40348      .   S
    C128   C76       1.40264      .   S
    C128   C106      1.40354      .   S
    H47    C107      1.08895      .   S
    H46    C106      1.08900      .   S
    H16    C77       1.08865  1_455   S
    H17    C76       1.08814      .   S
    C90    C96       1.39035      .   S
    C91    C97       1.39036      .   S
    C109   C79       1.39047      .   S
    C108   C78       1.39046      .   S
    C107   C105      1.39052      .   S
    C76    C74       1.39223      .   S
    C106   C104      1.39053      .   S
    C77    C75       1.38980      .   S
    C96    H36       1.08854      .   S
    C96    C134      1.40290      .   S
    C97    H37       1.08854      .   S
    C97    C135      1.40290      .   S
    C78    H19       1.08818  1_455   S
    C78    C134      1.40290      .   S
    C79    H18       1.08854      .   S
    C79    C135      1.40290      .   S
    C104   H44       1.08894      .   S
    C104   C126      1.40337      .   S
    C105   H45       1.08799      .   S
    C105   C127      1.40345      .   S
    C75    H14       1.08858  1_655   S
    C75    C127      1.40385      .   S
    C74    H15       1.08896      .   S
    C74    C126      1.40347      .   S
    C135   C133      1.49904      .   S
    C134   C132      1.49905      .   S
    C126   C124      1.49796      .   S
    C127   C125      1.41040      .   S
    C133   O175      1.27508      .   S
    C133   O193      1.27536      .   S
    C132   O174      1.27508      .   S
    C132   O192      1.27538      .   S
    C125   O201      1.31696      .   S
    C125   O171      1.31697      .   S
    C124   O200      1.27543      .   S
    C124   O170      1.27545      .   S
    O200   In2       2.20084      .   S
    O201   In3       2.20084      .   S
    O170   In1       2.20025      .   S
    O171   In0       2.20013      .   S
    H65    O217      0.97462      .   S
    H64    O216      0.97463      .   S
    O216   In2       2.14443  1_545   S
    O217   In0       2.14413  1_545   S
    In3    O219      2.14300      .   S
    In2    O218      2.14301      .   S
    O219   H63       0.97485      .   S
    O218   H62       0.97485      .   S
    O195   C137      1.27482      .   S
    O194   C136      1.27482      .   S
    O177   C137      1.27477      .   S
    O176   C136      1.27478      .   S
    O199   C121      1.27617      .   S
    O198   C120      1.27633      .   S
    O169   C121      1.27612      .   S
    O168   C120      1.27625      .   S
    C137   C139      1.49906      .   S
    C136   C138      1.49905      .   S
    C121   C123      1.49806      .   S
    C120   C122      1.49775      .   S
    C138   C98       1.40285      .   S
    C138   C80       1.40215      .   S
    C139   C99       1.40285      .   S
    C139   C81       1.40283      .   S
    H39    C98       1.08858  1_655   S
    H38    C99       1.08896      .   S
    H21    C81       1.08884      .   S
    H20    C80       1.08816      .   S
    C122   C102      1.40343      .   S
    C122   C72       1.40346      .   S
    C123   C103      1.40337      .   S
    C123   C73       1.40346      .   S
    H43    C102      1.08852      .   S
    H42    C103      1.08808  1_455   S
    H13    C73       1.08850      .   S
    H12    C72       1.08851      .   S
    C98    C100      1.39048      .   S
    C99    C101      1.39044      .   S
    C80    C82       1.39175      .   S
    C81    C83       1.39041      .   S
    C103   C85       1.39078      .   S
    C102   C84       1.39061      .   S
    C72    C114      1.39048      .   S
    C73    C115      1.39006      .   S
    C100   H41       1.08797  1_455   S
    C100   C140      1.40325      .   S
    C101   H40       1.08836      .   S
    C101   C141      1.40325      .   S
    C82    H22       1.08840      .   S
    C82    C140      1.40329      .   S
    C83    H23       1.08842      .   S
    C83    C141      1.40329      .   S
    C85    H24       1.08816  1_655   S
    C85    C147      1.40292      .   S
    C84    H25       1.08854      .   S
    C84    C146      1.40294      .   S
    C115   H55       1.08857      .   S
    C115   C147      1.40316      .   S
    C114   H54       1.08834      .   S
    C114   C146      1.40293      .   S
    C140   C142      1.49877      .   S
    C141   C143      1.49879      .   S
    C146   C144      1.49822      .   S
    C147   C145      1.49822      .   S
    C143   O197      1.27713      .   S
    C143   O179      1.27715      .   S
    C142   O196      1.27713      .   S
    C142   O178      1.27715      .   S
    C145   O211      1.27404      .   S
    C145   O181      1.27413      .   S
    C144   O210      1.27404      .   S
    C144   O180      1.27411      .   S
    H70    O224      0.97498      .   S
    H71    O225      0.97498      .   S
    H66    O222      0.97482      .   S
    H67    O223      0.97480      .   S
    H28    C88       1.08834      .   S
    H29    C89       1.08837      .   S
    C89    C153      1.40275      .   S
    C89    C87       1.38954      .   S
    C88    C152      1.40271      .   S
    C88    C86       1.39043      .   S
    C153   C119      1.40274      .   S
    C153   C155      1.50054      .   S
    C152   C118      1.40267      .   S
    C152   C154      1.50065      .   S
    H58    C119      1.08802  1_455   S
    H59    C118      1.08835      .   S
    C119   C117      1.39006      .   S
    C118   C116      1.39008      .   S
    C87    H27       1.08897      .   S
    C87    C151      1.40323      .   S
    C86    H26       1.08849      .   S
    C86    C150      1.40277      .   S
    C116   C150      1.40291      .   S
    C116   H57       1.08826      .   S
    C117   C151      1.40292      .   S
    C117   H56       1.08809  1_655   S
    C150   C148      1.49935      .   S
    C151   C149      1.49941      .   S
    C154   O214      1.27624      .   S
    C154   O184      1.27605      .   S
    C155   O215      1.27624      .   S
    C155   O185      1.27608      .   S
    C149   O183      1.27637      .   S
    C149   O213      1.27634      .   S
    C148   O182      1.27619      .   S
    C148   O212      1.27637      .   S
    O168   In1       2.21215      .   S
    O169   In0       2.21202      .   S
    O172   In9       2.18804      .   S
    O173   In8       2.18930  1_655   S
    O174   In2       2.21730  1_545   S
    O175   In3       2.21732  1_545   S
    O176   In2       2.20495  1_545   S
    O177   In3       2.20494  1_545   S
    O178   In10      2.23211  1_546   S
    O179   In11      2.23211  1_546   S
    O182   In4       2.22784  1_556   S
    O183   In5       2.22725  1_556   S
    O184   In10      2.23914  1_546   S
    O185   In11      2.23916  1_546   S
    O186   In6       2.23185      .   S
    O187   In7       2.23185      .   S
    O192   In0       2.21723  1_445   S
    O193   In1       2.21725  1_545   S
    O194   In0       2.20463  1_445   S
    O195   In1       2.20463  1_545   S
    O196   In8       2.23112  1_546   S
    O197   In9       2.23252  1_546   S
    O198   In2       2.21152      .   S
    O199   In3       2.21152      .   S
    O204   In4       2.23352      .   S
    O205   In5       2.23352      .   S
    O206   In4       2.18983      .   S
    O207   In5       2.18986      .   S
    O208   In10      2.18769      .   S
    O209   In11      2.18767      .   S
    O210   In7       2.19036  1_556   S
    O211   In6       2.19023  1_656   S
    O212   In7       2.22703  1_556   S
    O213   In6       2.22688  1_656   S
    O214   In9       2.23812  1_546   S
    O215   In8       2.23831  1_646   S
    O216   In1       2.14450  1_545   S
    O217   In3       2.14443  1_545   S
    O218   In0       2.14322  1_455   S
    O219   In1       2.14321      .   S
    O220   In4       2.14491      .   S
    O221   In5       2.14490      .   S
    O222   In6       2.14271  1_556   S
    O223   In7       2.14271  1_556   S
    O224   In10      2.13930  1_556   S
    O225   In11      2.13929  1_556   S
    O226   In8       2.14065  1_545   S
    O227   In11      2.14008  1_545   S
