# CIF file generated by openbabel 2.4.90, see http://openbabel.sf.net
data_I
_chemical_name_common 'VESTA_phase_1'
_cell_length_a 20.243
_cell_length_b 22.896
_cell_length_c 13.99
_cell_angle_alpha 90.005
_cell_angle_beta 100.938
_cell_angle_gamma 89.996
_space_group_name_H-M_alt 'P 1'
_space_group_name_Hall 'P 1'
loop_
    _symmetry_equiv_pos_as_xyz
    x,y,z
loop_
    _atom_site_label
    _atom_site_type_symbol
    _atom_site_fract_x
    _atom_site_fract_y
    _atom_site_fract_z
    _atom_site_occupancy
    Zn0     Zn   0.18637   0.00000   0.60058   1.000
    Zn1     Zn   0.18637   0.50000   0.60058   1.000
    Zn2     Zn   0.68637   0.00000   0.60058   1.000
    Zn3     Zn   0.68637   0.50000   0.60058   1.000
    Zn4     Zn   0.31364   1.00000   0.39939   1.000
    Zn5     Zn   0.31363   0.50000   0.39939   1.000
    Zn6     Zn   0.81364   1.00000   0.39940   1.000
    Zn7     Zn   0.81364   0.50000   0.39938   1.000
    H8      H    0.25244   0.40186   0.72998   1.000
    H9      H    0.25243   0.90186   0.73000   1.000
    H10     H    0.75251   0.40186   0.72994   1.000
    H11     H    0.75243   0.90186   0.73000   1.000
    H12     H    0.25603   0.29370   0.73673   1.000
    H13     H    0.25602   0.79371   0.73670   1.000
    H14     H    0.75612   0.29370   0.73667   1.000
    H15     H    0.75601   0.79371   0.73675   1.000
    H16     H    0.12360   0.29353   0.45422   1.000
    H17     H    0.12361   0.79353   0.45420   1.000
    H18     H    0.62352   0.29353   0.45400   1.000
    H19     H    0.62363   0.79353   0.45420   1.000
    H20     H    0.12571   0.40151   0.46162   1.000
    H21     H    0.12573   0.90151   0.46161   1.000
    H22     H    0.62565   0.40151   0.46168   1.000
    H23     H    0.62574   0.90151   0.46160   1.000
    H24     H    0.24758   0.40185   0.26990   1.000
    H25     H    0.24763   0.90186   0.26995   1.000
    H26     H    0.74756   0.40185   0.26999   1.000
    H27     H    0.74773   0.90186   0.26988   1.000
    H28     H    0.24398   0.29369   0.26323   1.000
    H29     H    0.24404   0.79370   0.26319   1.000
    H30     H    0.74395   0.29370   0.26326   1.000
    H31     H    0.74417   0.79370   0.26310   1.000
    H32     H    0.37640   0.29354   0.54570   1.000
    H33     H    0.37636   0.79354   0.54500   1.000
    H34     H    0.87644   0.29354   0.54573   1.000
    H35     H    0.87624   0.79353   0.54590   1.000
    H36     H    0.37429   0.40152   0.53835   1.000
    H37     H    0.37426   0.90152   0.53839   1.000
    H38     H    0.87433   0.40152   0.53832   1.000
    H39     H    0.87416   0.90151   0.53848   1.000
    H40     H    0.24753   0.09814   0.27002   1.000
    H41     H    0.24749   0.59814   0.27005   1.000
    H42     H    0.74756   0.09814   0.27000   1.000
    H43     H    0.74738   0.59815   0.27012   1.000
    H44     H    0.24392   0.20630   0.26320   1.000
    H45     H    0.24387   0.70630   0.26332   1.000
    H46     H    0.74397   0.20630   0.26325   1.000
    H47     H    0.74374   0.70630   0.26343   1.000
    H48     H    0.37646   0.20647   0.54571   1.000
    H49     H    0.37651   0.70647   0.54567   1.000
    H50     H    0.87642   0.20647   0.54574   1.000
    H51     H    0.87665   0.70647   0.54550   1.000
    H52     H    0.37434   0.09849   0.53832   1.000
    H53     H    0.37438   0.59849   0.53828   1.000
    H54     H    0.87430   0.09849   0.53835   1.000
    H55     H    0.87449   0.59848   0.53818   1.000
    H56     H    0.25247   0.09815   0.72997   1.000
    H57     H    0.25247   0.59815   0.72990   1.000
    H58     H    0.75240   0.09814   0.73002   1.000
    H59     H    0.75248   0.59815   0.72996   1.000
    H60     H    0.25608   0.20630   0.73600   1.000
    H61     H    0.25608   0.70631   0.73670   1.000
    H62     H    0.75599   0.20630   0.73670   1.000
    H63     H    0.75610   0.70631   0.73668   1.000
    H64     H    0.12354   0.20646   0.45427   1.000
    H65     H    0.12355   0.70647   0.45420   1.000
    H66     H    0.62364   0.20647   0.45400   1.000
    H67     H    0.62353   0.70646   0.45428   1.000
    H68     H    0.12566   0.09848   0.46167   1.000
    H69     H    0.12567   0.59849   0.46166   1.000
    H70     H    0.62573   0.09849   0.46160   1.000
    H71     H    0.62565   0.59848   0.46168   1.000
    H72     H    0.45598   0.99999   0.59000   1.000
    H73     H    0.45598   0.50001   0.59006   1.000
    H74     H    0.95598   0.99999   0.59007   1.000
    H75     H    0.95599   0.49999   0.59006   1.000
    H76     H    0.07902   0.99999   0.87703   1.000
    H77     H    0.07903   0.50001   0.87703   1.000
    H78     H    0.57903   0.99998   0.87703   1.000
    H79     H    0.57903   0.50001   0.87703   1.000
    H80     H    0.36270   0.99998   0.84330   1.000
    H81     H    0.36270   0.50001   0.84330   1.000
    H82     H    0.86270   0.99999   0.84331   1.000
    H83     H    0.86270   0.50002   0.84329   1.000
    H84     H    0.04403   0.99999   0.40991   1.000
    H85     H    0.04403   0.49999   0.40990   1.000
    H86     H    0.54404   0.99999   0.40991   1.000
    H87     H    0.54402   0.50001   0.40991   1.000
    H88     H    0.42098   0.99999   0.12290   1.000
    H89     H    0.42098   0.50000   0.12294   1.000
    H90     H    0.92098   0.99999   0.12295   1.000
    H91     H    0.92098   0.50001   0.12290   1.000
    H92     H    0.13731   0.99999   0.15668   1.000
    H93     H    0.13731   0.50000   0.15667   1.000
    H94     H    0.63731   0.99999   0.15667   1.000
    H95     H    0.63731   0.50000   0.15660   1.000
    C96     C    0.22487   0.37554   0.67065   1.000
    C97     C    0.22486   0.87555   0.67066   1.000
    C98     C    0.72491   0.37554   0.67063   1.000
    C99     C    0.72486   0.87555   0.67066   1.000
    C100    C    0.22642   0.31488   0.67314   1.000
    C101    C    0.22641   0.81489   0.67315   1.000
    C102    C    0.72647   0.31488   0.67311   1.000
    C103    C    0.72641   0.81488   0.67315   1.000
    C104    C    0.19019   0.28242   0.59519   1.000
    C105    C    0.19019   0.78242   0.59519   1.000
    C106    C    0.69020   0.28242   0.59519   1.000
    C107    C    0.69020   0.78242   0.59519   1.000
    C108    C    0.15341   0.31478   0.51757   1.000
    C109    C    0.15342   0.81478   0.51756   1.000
    C110    C    0.65337   0.31478   0.51761   1.000
    C111    C    0.65343   0.81478   0.51756   1.000
    C112    C    0.15417   0.37542   0.52046   1.000
    C113    C    0.15418   0.87542   0.52046   1.000
    C114    C    0.65414   0.37542   0.52050   1.000
    C115    C    0.65419   0.87542   0.52045   1.000
    C116    C    0.27515   0.37554   0.32931   1.000
    C117    C    0.27518   0.87554   0.32929   1.000
    C118    C    0.77514   0.37554   0.32932   1.000
    C119    C    0.77524   0.87554   0.32926   1.000
    C120    C    0.27359   0.31488   0.32683   1.000
    C121    C    0.27362   0.81488   0.32681   1.000
    C122    C    0.77358   0.31488   0.32684   1.000
    C123    C    0.77369   0.81488   0.32676   1.000
    C124    C    0.30981   0.28242   0.40478   1.000
    C125    C    0.30982   0.78243   0.40478   1.000
    C126    C    0.80982   0.28242   0.40478   1.000
    C127    C    0.80982   0.78242   0.40478   1.000
    C128    C    0.34659   0.31479   0.48241   1.000
    C129    C    0.34657   0.81479   0.48243   1.000
    C130    C    0.84662   0.31479   0.48239   1.000
    C131    C    0.84651   0.81478   0.48249   1.000
    C132    C    0.34584   0.37542   0.47951   1.000
    C133    C    0.34582   0.87542   0.47953   1.000
    C134    C    0.84586   0.37542   0.47949   1.000
    C135    C    0.84577   0.87542   0.47958   1.000
    C136    C    0.27512   0.12446   0.32934   1.000
    C137    C    0.27509   0.62446   0.32930   1.000
    C138    C    0.77514   0.12446   0.32933   1.000
    C139    C    0.77504   0.62446   0.32939   1.000
    C140    C    0.27356   0.18512   0.32685   1.000
    C141    C    0.27354   0.68512   0.32687   1.000
    C142    C    0.77359   0.18512   0.32684   1.000
    C143    C    0.77348   0.68512   0.32692   1.000
    C144    C    0.30981   0.21758   0.40478   1.000
    C145    C    0.30981   0.71758   0.40478   1.000
    C146    C    0.80982   0.21758   0.40478   1.000
    C147    C    0.80982   0.71758   0.40478   1.000
    C148    C    0.34662   0.18522   0.48238   1.000
    C149    C    0.34665   0.68522   0.48236   1.000
    C150    C    0.84660   0.18522   0.48241   1.000
    C151    C    0.84673   0.68522   0.48230   1.000
    C152    C    0.34586   0.12458   0.47949   1.000
    C153    C    0.34588   0.62458   0.47947   1.000
    C154    C    0.84584   0.12458   0.47951   1.000
    C155    C    0.84595   0.62458   0.47941   1.000
    C156    C    0.22488   0.12446   0.67065   1.000
    C157    C    0.22488   0.62446   0.67064   1.000
    C158    C    0.72484   0.12446   0.67067   1.000
    C159    C    0.72489   0.62446   0.67064   1.000
    C160    C    0.22644   0.18512   0.67313   1.000
    C161    C    0.22644   0.68512   0.67313   1.000
    C162    C    0.72640   0.18512   0.67316   1.000
    C163    C    0.72645   0.68512   0.67312   1.000
    C164    C    0.19019   0.21758   0.59520   1.000
    C165    C    0.19019   0.71758   0.59500   1.000
    C166    C    0.69019   0.21758   0.59519   1.000
    C167    C    0.69020   0.71758   0.59500   1.000
    C168    C    0.15338   0.18521   0.51760   1.000
    C169    C    0.15338   0.68522   0.51759   1.000
    C170    C    0.65343   0.18522   0.51756   1.000
    C171    C    0.65337   0.68522   0.51760   1.000
    C172    C    0.15414   0.12458   0.52050   1.000
    C173    C    0.15414   0.62458   0.52049   1.000
    C174    C    0.65418   0.12458   0.52045   1.000
    C175    C    0.65414   0.62458   0.52050   1.000
    C176    C    0.33322   1.00000   0.64486   1.000
    C177    C    0.33322   0.50001   0.64480   1.000
    C178    C    0.83322   1.00000   0.64486   1.000
    C179    C    0.83323   0.50000   0.64485   1.000
    C180    C    0.40164   0.99999   0.70960   1.000
    C181    C    0.40164   0.50001   0.70960   1.000
    C182    C    0.90164   1.00000   0.70961   1.000
    C183    C    0.90165   0.50001   0.70960   1.000
    C184    C    0.45980   0.99999   0.66890   1.000
    C185    C    0.45980   0.50001   0.66800   1.000
    C186    C    0.95980   0.99999   0.66890   1.000
    C187    C    0.95981   0.50000   0.66889   1.000
    C188    C    0.02366   0.99999   0.72950   1.000
    C189    C    0.02367   0.50000   0.72952   1.000
    C190    C    0.52367   0.99999   0.72952   1.000
    C191    C    0.52367   0.50001   0.72952   1.000
    C192    C    0.08609   0.99998   0.68598   1.000
    C193    C    0.08611   0.50000   0.68598   1.000
    C194    C    0.58610   0.99999   0.68598   1.000
    C195    C    0.58610   0.50001   0.68598   1.000
    C196    C    0.02940   0.99999   0.83052   1.000
    C197    C    0.02941   0.50001   0.83050   1.000
    C198    C    0.52941   0.99999   0.83052   1.000
    C199    C    0.52941   0.50000   0.83052   1.000
    C200    C    0.47121   0.99998   0.87170   1.000
    C201    C    0.47121   0.50001   0.87170   1.000
    C202    C    0.97121   0.99999   0.87171   1.000
    C203    C    0.97122   0.50002   0.87170   1.000
    C204    C    0.40761   0.99998   0.81101   1.000
    C205    C    0.40761   0.50001   0.81100   1.000
    C206    C    0.90761   0.99999   0.81101   1.000
    C207    C    0.90762   0.50002   0.81100   1.000
    C208    C    0.16679   0.99999   0.35512   1.000
    C209    C    0.16679   0.49999   0.35511   1.000
    C210    C    0.66680   0.99999   0.35511   1.000
    C211    C    0.66679   0.50000   0.35512   1.000
    C212    C    0.09836   0.99999   0.29030   1.000
    C213    C    0.09836   0.50000   0.29037   1.000
    C214    C    0.59837   1.00000   0.29037   1.000
    C215    C    0.59836   0.50000   0.29037   1.000
    C216    C    0.04020   0.99999   0.33108   1.000
    C217    C    0.04020   0.49999   0.33107   1.000
    C218    C    0.54021   0.99999   0.33108   1.000
    C219    C    0.54020   0.50000   0.33108   1.000
    C220    C    0.47635   0.99999   0.27045   1.000
    C221    C    0.47634   0.50001   0.27045   1.000
    C222    C    0.97634   0.99999   0.27045   1.000
    C223    C    0.97634   0.50000   0.27040   1.000
    C224    C    0.41391   0.99999   0.31399   1.000
    C225    C    0.41390   0.50001   0.31398   1.000
    C226    C    0.91391   0.99999   0.31399   1.000
    C227    C    0.91391   0.49999   0.31399   1.000
    C228    C    0.47060   1.00000   0.16946   1.000
    C229    C    0.47059   0.50000   0.16945   1.000
    C230    C    0.97060   0.99999   0.16946   1.000
    C231    C    0.97060   0.50000   0.16945   1.000
    C232    C    0.02880   0.99999   0.12827   1.000
    C233    C    0.02880   0.50001   0.12827   1.000
    C234    C    0.52880   0.99999   0.12827   1.000
    C235    C    0.52880   0.50000   0.12827   1.000
    C236    C    0.09239   0.99999   0.18897   1.000
    C237    C    0.09239   0.50000   0.18896   1.000
    C238    C    0.59240   0.99999   0.18897   1.000
    C239    C    0.59239   0.50000   0.18897   1.000
    N240    N    0.18966   0.40575   0.59532   1.000
    N241    N    0.18966   0.90576   0.59533   1.000
    N242    N    0.68966   0.40576   0.59533   1.000
    N243    N    0.68967   0.90576   0.59532   1.000
    N244    N    0.31035   0.40575   0.40464   1.000
    N245    N    0.31037   0.90576   0.40464   1.000
    N246    N    0.81036   0.40576   0.40464   1.000
    N247    N    0.81037   0.90576   0.40465   1.000
    N248    N    0.31035   0.09424   0.40465   1.000
    N249    N    0.31034   0.59425   0.40465   1.000
    N250    N    0.81035   0.09425   0.40465   1.000
    N251    N    0.81034   0.59425   0.40460   1.000
    N252    N    0.18965   0.09424   0.59534   1.000
    N253    N    0.18966   0.59425   0.59533   1.000
    N254    N    0.68965   0.09425   0.59533   1.000
    N255    N    0.68965   0.59425   0.59534   1.000
    N256    N    0.47079   0.99998   0.97296   1.000
    N257    N    0.47079   0.50001   0.97296   1.000
    N258    N    0.97079   0.99999   0.97297   1.000
    N259    N    0.97080   0.50001   0.97296   1.000
    N260    N    0.02921   0.99999   0.02700   1.000
    N261    N    0.02922   0.50001   0.02701   1.000
    N262    N    0.52922   0.99999   0.02701   1.000
    N263    N    0.52922   0.50000   0.02701   1.000
    O264    O    0.28228   0.99999   0.68677   1.000
    O265    O    0.28228   0.50000   0.68676   1.000
    O266    O    0.78228   1.00000   0.68677   1.000
    O267    O    0.78229   0.50001   0.68676   1.000
    O268    O    0.33010   0.00000   0.55300   1.000
    O269    O    0.33011   0.50001   0.55379   1.000
    O270    O    0.83010   0.00001   0.55380   1.000
    O271    O    0.83012   0.50001   0.55379   1.000
    O272    O    0.07939   0.00001   0.59296   1.000
    O273    O    0.07941   0.50000   0.59296   1.000
    O274    O    0.57940   0.00000   0.59296   1.000
    O275    O    0.57940   0.50000   0.59296   1.000
    O276    O    0.14354   0.00000   0.74143   1.000
    O277    O    0.14355   0.50000   0.74144   1.000
    O278    O    0.64355   0.00000   0.74140   1.000
    O279    O    0.64355   0.50000   0.74143   1.000
    O280    O    0.21773   1.00000   0.31320   1.000
    O281    O    0.21772   0.50000   0.31320   1.000
    O282    O    0.71773   0.99999   0.31320   1.000
    O283    O    0.71772   0.50000   0.31320   1.000
    O284    O    0.16990   1.00000   0.44618   1.000
    O285    O    0.16990   0.50000   0.44610   1.000
    O286    O    0.66991   0.99999   0.44618   1.000
    O287    O    0.66990   0.50000   0.44618   1.000
    O288    O    0.42061   0.00000   0.40702   1.000
    O289    O    0.42060   0.50000   0.40701   1.000
    O290    O    0.92061   0.00001   0.40701   1.000
    O291    O    0.92061   0.50001   0.40701   1.000
    O292    O    0.35646   1.00000   0.25854   1.000
    O293    O    0.35645   0.49999   0.25853   1.000
    O294    O    0.85646   1.00000   0.25850   1.000
    O295    O    0.85646   0.50000   0.25853   1.000
loop_
    _geom_bond_atom_site_label_1
    _geom_bond_atom_site_label_2
    _geom_bond_distance
    _geom_bond_site_symmetry_2
    _ccdc_geom_bond_type
    N260   C232      1.41840      .   S
    N260   N258      1.27697  1_454   S
    N263   C235      1.41827      .   S
    N263   N257      1.27719  1_554   S
    N262   C234      1.41825      .   S
    N262   N256      1.27720  1_554   S
    N261   C233      1.41826      .   S
    N261   N259      1.27707  1_454   S
    H88    C228      1.08851      .   S
    H91    C231      1.08844      .   S
    H89    C229      1.08820      .   S
    H90    C230      1.08820      .   S
    C232   C230      1.40622  1_455   S
    C232   C236      1.40130      .   S
    C233   C231      1.40616  1_455   S
    C233   C237      1.40124      .   S
    C234   C228      1.40633      .   S
    C234   C238      1.40131      .   S
    C235   C229      1.40629      .   S
    C235   C239      1.40128      .   S
    H95    C239      1.08999      .   S
    H94    C238      1.08939      .   S
    H93    C237      1.08933      .   S
    H92    C236      1.08933      .   S
    C231   C223      1.39491      .   S
    C229   C221      1.39561      .   S
    C228   C220      1.39546      .   S
    C230   C222      1.39546      .   S
    C237   C213      1.40083      .   S
    C238   C214      1.40069      .   S
    C236   C212      1.39971      .   S
    C239   C215      1.40069      .   S
    O294   C226      1.26980      .   S
    O294   Zn6       2.29898      .   S
    O295   C227      1.26963      .   S
    O295   Zn7       2.29836      .   S
    O293   C225      1.26954      .   S
    O293   Zn5       2.29844      .   S
    O292   C224      1.26956      .   S
    O292   Zn4       2.29841      .   S
    H31    C123      1.08787      .   S
    H29    C121      1.08799      .   S
    H44    C140      1.08876      .   S
    H28    C120      1.08801      .   S
    H46    C142      1.08796      .   S
    H30    C122      1.08798      .   S
    H45    C141      1.08797      .   S
    H47    C143      1.08793      .   S
    H27    C119      1.08988      .   S
    H24    C116      1.09057      .   S
    H25    C117      1.08980      .   S
    H26    C118      1.08989      .   S
    H42    C138      1.08988      .   S
    H40    C136      1.08988      .   S
    H41    C137      1.08935      .   S
    H43    C139      1.08987      .   S
    C223   C227      1.50393      .   S
    C223   C217      1.40538  1_655   S
    C222   C226      1.50357      .   S
    C222   C216      1.40514  1_655   S
    C220   C224      1.50353      .   S
    C220   C218      1.40526      .   S
    C221   C225      1.50349      .   S
    C221   C219      1.40524      .   S
    C212   C216      1.40234      .   S
    C212   C208      1.50473      .   S
    C215   C219      1.40178      .   S
    C215   C211      1.50431      .   S
    C214   C218      1.40176      .   S
    C214   C210      1.50425      .   S
    C213   C217      1.40168      .   S
    C213   C209      1.50425      .   S
    O283   C211      1.27929      .   S
    O283   Zn7       2.08212      .   S
    O282   C210      1.27924      .   S
    O282   Zn6       2.08205      .   S
    O281   C209      1.27922      .   S
    O281   Zn5       2.08206      .   S
    O280   C208      1.27931      .   S
    O280   Zn4       2.08209      .   S
    C225   O289      1.28269      .   S
    C226   O290      1.28255  1_565   S
    C227   O291      1.28254      .   S
    C224   O288      1.28268  1_565   S
    C123   C119      1.38952      .   S
    C123   C127      1.40562      .   S
    C121   C117      1.38951      .   S
    C121   C125      1.40560      .   S
    C120   C116      1.38951      .   S
    C120   C124      1.40560      .   S
    C122   C118      1.38951      .   S
    C122   C126      1.40559      .   S
    C142   C138      1.38949      .   S
    C142   C146      1.40559      .   S
    C140   C136      1.38952      .   S
    C140   C144      1.40561      .   S
    C141   C137      1.38950      .   S
    C141   C145      1.40559      .   S
    C143   C139      1.38951      .   S
    C143   C147      1.40561      .   S
    C119   N247      1.34609      .   S
    C117   N245      1.34617      .   S
    C137   N249      1.34667      .   S
    C116   N244      1.34614      .   S
    C118   N246      1.34615      .   S
    C138   N250      1.34609      .   S
    C136   N248      1.34611      .   S
    C139   N251      1.34582      .   S
    C217   H85       1.09080      .   S
    C219   H87       1.09080      .   S
    C218   H86       1.09079      .   S
    C216   H84       1.09080      .   S
    C209   O285      1.26251      .   S
    C210   O286      1.26362      .   S
    C211   O287      1.26349      .   S
    C208   O284      1.26349      .   S
    Zn7    N251      2.16052      .   S
    Zn7    N246      2.16055      .   S
    Zn7    O291      2.14774      .   S
    Zn7    O271      2.12233      .   S
    Zn5    N244      2.16057      .   S
    Zn5    N249      2.16056      .   S
    Zn5    O289      2.14758      .   S
    Zn5    O269      2.12219      .   S
    Zn4    N245      2.16045      .   S
    Zn4    N248      2.16054  1_565   S
    Zn4    O288      2.14780  1_565   S
    Zn4    O268      2.11127  1_565   S
    Zn6    N250      2.16057  1_565   S
    Zn6    N247      2.16047      .   S
    Zn6    O290      2.14766  1_565   S
    Zn6    O270      2.12220  1_565   S
    N251   C155      1.34566      .   S
    N244   C132      1.34534      .   S
    N245   C133      1.34534      .   S
    N246   C134      1.34528      .   S
    N249   C153      1.34532      .   S
    N250   C154      1.34532      .   S
    N247   C135      1.34529      .   S
    N248   C152      1.34530      .   S
    C145   C125      1.48467      .   S
    C145   C149      1.40571      .   S
    C147   C127      1.48467      .   S
    C147   C151      1.40571      .   S
    C126   C146      1.48465      .   S
    C126   C130      1.40570      .   S
    C144   C124      1.48465      .   S
    C144   C148      1.40568      .   S
    C146   C150      1.40577      .   S
    C127   C131      1.40573      .   S
    C124   C128      1.40572      .   S
    C125   C129      1.40568      .   S
    O285   Zn1       2.12330      .   S
    O287   Zn3       2.12219      .   S
    O286   Zn2       2.12220  1_565   S
    O284   Zn0       2.12220  1_565   S
    H66    C170      1.08977      .   S
    H18    C110      1.09077      .   S
    H65    C169      1.08839      .   S
    H19    C111      1.08785      .   S
    H17    C109      1.08791      .   S
    H16    C108      1.08785      .   S
    H64    C168      1.08783      .   S
    H67    C171      1.08778      .   S
    H23    C115      1.08927      .   S
    H70    C174      1.08926      .   S
    H21    C113      1.08930      .   S
    H20    C112      1.08925      .   S
    H69    C173      1.08932      .   S
    H68    C172      1.08933      .   S
    H22    C114      1.08932      .   S
    H71    C175      1.08927      .   S
    C155   C151      1.38893      .   S
    C155   H55       1.08931      .   S
    C153   C149      1.38891      .   S
    C153   H53       1.08929      .   S
    C152   C148      1.38893      .   S
    C152   H52       1.08932      .   S
    C134   C130      1.38892      .   S
    C134   H38       1.08926      .   S
    C154   C150      1.38891      .   S
    C154   H54       1.08928      .   S
    C132   C128      1.38889      .   S
    C132   H36       1.08925      .   S
    C133   C129      1.38889      .   S
    C133   H37       1.08929      .   S
    C135   C131      1.38890      .   S
    C135   H39       1.08930      .   S
    C151   H51       1.08723      .   S
    C149   H49       1.08781      .   S
    C148   H48       1.08782      .   S
    C130   H34       1.08782      .   S
    C128   H32       1.08723      .   S
    C150   H50       1.08771      .   S
    C129   H33       1.07994      .   S
    C131   H35       1.08776      .   S
    C170   C174      1.38889      .   S
    C170   C166      1.40560      .   S
    C111   C115      1.38891      .   S
    C111   C107      1.40564      .   S
    C109   C113      1.38891      .   S
    C109   C105      1.40567      .   S
    C108   C112      1.38891      .   S
    C108   C104      1.40563      .   S
    C169   C173      1.38892      .   S
    C169   C165      1.40389      .   S
    C168   C172      1.38889      .   S
    C168   C164      1.40569      .   S
    C171   C175      1.38889      .   S
    C171   C167      1.40388      .   S
    C110   C114      1.38891      .   S
    C110   C106      1.40560      .   S
    C174   N254      1.34535      .   S
    C115   N243      1.34531      .   S
    C112   N240      1.34531      .   S
    C113   N241      1.34532      .   S
    C173   N253      1.34529      .   S
    C175   N255      1.34534      .   S
    C172   N252      1.34527      .   S
    C114   N242      1.34529      .   S
    O268   C176      1.27467  1_545   S
    O271   C179      1.26349      .   S
    O269   C177      1.26280      .   S
    O270   C178      1.26349  1_545   S
    H72    C184      1.09177      .   S
    H75    C187      1.09080      .   S
    H73    C185      1.07838      .   S
    H74    C186      1.09079      .   S
    O273   Zn1       2.14764      .   S
    O273   C193      1.28254      .   S
    O272   Zn0       2.14784      .   S
    O272   C192      1.28254  1_545   S
    O274   Zn2       2.14768      .   S
    O274   C194      1.28254  1_545   S
    O275   Zn3       2.14778      .   S
    O275   C195      1.28254      .   S
    C167   C107      1.48465      .   S
    C167   C163      1.40747      .   S
    C165   C105      1.48467      .   S
    C165   C161      1.40747      .   S
    C106   C166      1.48467      .   S
    C106   C102      1.40566      .   S
    C107   C103      1.40563      .   S
    C105   C101      1.40569      .   S
    C104   C164      1.48467      .   S
    C104   C100      1.40563      .   S
    C166   C162      1.40565      .   S
    C164   C160      1.40561      .   S
    N243   Zn2       2.16047  1_565   S
    N243   C99       1.34613      .   S
    N240   Zn1       2.16058      .   S
    N240   C96       1.34612      .   S
    N241   Zn0       2.16046  1_565   S
    N241   C97       1.34611      .   S
    N253   Zn1       2.16057      .   S
    N253   C157      1.34611      .   S
    N242   Zn3       2.16055      .   S
    N242   C98       1.34617      .   S
    N254   Zn2       2.16057      .   S
    N254   C158      1.34610      .   S
    N255   Zn3       2.16054      .   S
    N255   C159      1.34610      .   S
    N252   Zn0       2.16054      .   S
    N252   C156      1.34615      .   S
    Zn3    O267      2.08209      .   S
    Zn3    O279      2.29836      .   S
    Zn1    O265      2.08199      .   S
    Zn1    O277      2.29845      .   S
    Zn2    O266      2.08203  1_545   S
    Zn2    O278      2.29793      .   S
    Zn0    O264      2.08211  1_545   S
    Zn0    O276      2.29837      .   S
    C177   O265      1.27967      .   S
    C177   C181      1.50459      .   S
    C179   O267      1.27924      .   S
    C179   C183      1.50429      .   S
    C178   O266      1.27924      .   S
    C178   C182      1.50431      .   S
    C176   O264      1.27924      .   S
    C176   C180      1.50425      .   S
    C185   C181      1.40886      .   S
    C185   C191      1.41064      .   S
    C187   C183      1.40180      .   S
    C187   C189      1.40513  1_655   S
    C184   C180      1.40170      .   S
    C184   C190      1.40520      .   S
    C186   C182      1.40176      .   S
    C186   C188      1.40498  1_655   S
    C98    C102      1.38951      .   S
    C98    H10       1.08988      .   S
    C157   C161      1.38951      .   S
    C157   H57       1.08930      .   S
    C159   C163      1.38951      .   S
    C159   H59       1.08990      .   S
    C96    C100      1.38951      .   S
    C96    H8        1.08986      .   S
    C156   C160      1.38951      .   S
    C156   H56       1.08988      .   S
    C99    C103      1.38951      .   S
    C99    H11       1.08989      .   S
    C97    C101      1.38949      .   S
    C97    H9        1.08992      .   S
    C158   C162      1.38951      .   S
    C158   H58       1.08993      .   S
    C102   H14       1.08796      .   S
    C163   H63       1.08791      .   S
    C161   H61       1.08795      .   S
    C160   H60       1.08101      .   S
    C100   H12       1.08792      .   S
    C101   H13       1.08748      .   S
    C103   H15       1.08793      .   S
    C162   H62       1.08731      .   S
    C193   C189      1.50355      .   S
    C193   O277      1.26962      .   S
    C194   C190      1.50353      .   S
    C194   O278      1.26939  1_565   S
    C195   C191      1.50352      .   S
    C195   O279      1.26957      .   S
    C192   C188      1.50334      .   S
    C192   O276      1.26959  1_565   S
    C183   C207      1.40069      .   S
    C181   C205      1.40069      .   S
    C180   C204      1.40082      .   S
    C182   C206      1.40069      .   S
    C188   C196      1.39588      .   S
    C190   C198      1.39560      .   S
    C189   C197      1.39533      .   S
    C191   C199      1.39561      .   S
    C207   H83       1.08933      .   S
    C207   C203      1.40130      .   S
    C205   H81       1.08941      .   S
    C205   C201      1.40130      .   S
    C204   H80       1.08933      .   S
    C204   C200      1.40124      .   S
    C206   H82       1.08939      .   S
    C206   C202      1.40131      .   S
    C197   C203      1.40634  1_455   S
    C197   H77       1.08830      .   S
    C199   C201      1.40627      .   S
    C199   H79       1.08820      .   S
    C196   C202      1.40622  1_455   S
    C196   H76       1.08822      .   S
    C198   C200      1.40627      .   S
    C198   H78       1.08820      .   S
    C200   N256      1.41826      .   S
    C201   N257      1.41827      .   S
    C203   N259      1.41827      .   S
    C202   N258      1.41825      .   S
