# CIF file generated by openbabel 2.4.90, see http://openbabel.sf.net
data_I
_chemical_name_common ''
_cell_length_a 15.743
_cell_length_b 15.75
_cell_length_c 20.005
_cell_angle_alpha 90.001
_cell_angle_beta 90
_cell_angle_gamma 90.008
_space_group_name_H-M_alt 'P 1'
_space_group_name_Hall 'P 1'
loop_
    _symmetry_equiv_pos_as_xyz
    x,y,z
loop_
    _atom_site_label
    _atom_site_type_symbol
    _atom_site_fract_x
    _atom_site_fract_y
    _atom_site_fract_z
    _atom_site_occupancy
    Zr0     Zr   0.24866   0.74805   0.60000   1.000
    Zr1     Zr   0.74843   0.24812   0.49995   1.000
    Zr2     Zr   0.74865   0.24808   0.99992   1.000
    Zr3     Zr   0.24843   0.74811   0.50002   1.000
    Zr4     Zr   0.08344   0.91516   0.99996   1.000
    Zr5     Zr   0.41500   0.58124   0.99999   1.000
    Zr6     Zr   0.58231   0.08127   0.50004   1.000
    Zr7     Zr   0.91475   0.41497   0.50003   1.000
    Zr8     Zr   0.91499   0.08125   0.99999   1.000
    Zr9     Zr   0.41478   0.91495   0.49994   1.000
    Zr10    Zr   0.08228   0.58125   0.49993   1.000
    O11     O    0.24854   0.74808   0.55001   1.000
    N12     N    0.93127   0.56640   0.82471   1.000
    O13     O    0.00475   0.71136   0.90296   1.000
    O14     O    0.98620   0.56690   0.68138   1.000
    O15     O    0.83963   0.43370   0.89842   1.000
    O16     O    0.92982   0.51025   0.68136   1.000
    N17     N    0.06647   0.42993   0.17516   1.000
    O18     O    0.00994   0.42941   0.31850   1.000
    O19     O    0.99320   0.28505   0.09689   1.000
    O20     O    0.21120   0.50321   0.09680   1.000
    O21     O    0.06764   0.48600   0.31856   1.000
    O22     O    0.93405   0.33834   0.10146   1.000
    N23     N    0.43149   0.06638   0.17524   1.000
    O24     O    0.48760   0.06689   0.31858   1.000
    O25     O    0.56371   0.15797   0.10155   1.000
    O26     O    0.28702   0.99307   0.09679   1.000
    O27     O    0.42996   0.01024   0.31860   1.000
    N28     N    0.93122   0.93019   0.32479   1.000
    O29     O    0.98647   0.92968   0.18148   1.000
    O30     O    0.93009   0.98541   0.18139   1.000
    O31     O    0.78636   0.00340   0.40312   1.000
    O32     O    0.83937   0.06273   0.39844   1.000
    O33     O    0.06344   0.83845   0.39845   1.000
    O34     O    0.00431   0.78517   0.40302   1.000
    N35     N    0.06665   0.06646   0.67514   1.000
    O36     O    0.21116   0.99306   0.59674   1.000
    O37     O    0.15808   0.93377   0.62641   1.000
    O38     O    0.15803   0.93379   0.60142   1.000
    O39     O    0.01030   0.06699   0.81851   1.000
    O40     O    0.06819   0.01041   0.81857   1.000
    O41     O    0.99318   0.21126   0.59692   1.000
    O42     O    0.93405   0.15789   0.60143   1.000
    N43     N    0.56661   0.56643   0.32482   1.000
    O44     O    0.43403   0.65787   0.39854   1.000
    O45     O    0.51027   0.56697   0.18145   1.000
    O46     O    0.71113   0.49305   0.40322   1.000
    O47     O    0.65801   0.43377   0.39854   1.000
    O48     O    0.49317   0.71124   0.40305   1.000
    N49     N    0.56647   0.92984   0.82479   1.000
    O50     O    0.50995   0.92936   0.68146   1.000
    O51     O    0.65810   0.06247   0.89847   1.000
    O52     O    0.56765   0.98524   0.68140   1.000
    O53     O    0.49320   0.78501   0.90307   1.000
    O54     O    0.71119   0.00318   0.90315   1.000
    N55     N    0.43141   0.43031   0.67516   1.000
    O56     O    0.33946   0.56279   0.60152   1.000
    O57     O    0.33952   0.56277   0.62651   1.000
    O58     O    0.28644   0.50346   0.59685   1.000
    O59     O    0.50442   0.28523   0.59695   1.000
    O60     O    0.43018   0.48628   0.81856   1.000
    O61     O    0.56353   0.33852   0.60151   1.000
loop_
    _geom_bond_atom_site_label_1
    _geom_bond_atom_site_label_2
    _geom_bond_distance
    _geom_bond_site_symmetry_2
    _ccdc_geom_bond_type
    Zr3    O11       1.00005      .   S
    Zr0    O11       1.00005      .   S
    N12    O13       3.00007  1_655   S
    Zr4    O13       3.94997      .   S
    N12    O14       2.99492      .   S
    Zr10   O14       3.93901  1_455   S
    N12    O15       2.93640      .   S
    Zr2    O15       3.83679      .   S
    N12    O16       3.00111      .   S
    Zr7    O16       3.93283      .   S
    N17    O18       3.00241      .   S
    Zr7    O18       3.93512  1_655   S
    N17    O19       2.99805  1_455   S
    Zr8    O19       3.94668  1_556   S
    N17    O20       2.99663      .   S
    Zr5    O20       3.94386  1_556   S
    N17    O21       3.00155      .   S
    Zr10   O21       3.93294      .   S
    N17    O22       2.93262  1_455   S
    Zr2    O22       3.82947  1_556   S
    N23    O24       3.00045      .   S
    Zr6    O24       3.93089      .   S
    N23    O25       2.93031      .   S
    Zr2    O25       3.82407  1_556   S
    N23    O26       2.99469  1_545   S
    Zr4    O26       3.94056  1_556   S
    N23    O27       3.00122      .   S
    Zr9    O27       3.93314  1_565   S
    N28    O29       2.99593      .   S
    Zr4    O29       3.94586  1_456   S
    N28    O30       2.99768      .   S
    Zr8    O30       3.93760  1_546   S
    N28    O31       2.99772  1_565   S
    Zr6    O31       3.94770      .   S
    N28    O32       2.93606  1_565   S
    Zr1    O32       3.83406      .   S
    N28    O33       2.93133  1_655   S
    Zr3    O33       3.82570      .   S
    N28    O34       2.99844  1_655   S
    Zr10   O34       3.94739      .   S
    N35    O36       2.99544  1_545   S
    Zr9    O36       3.94210      .   S
    N35    O37       2.71850  1_545   S
    Zr0    O37       3.29692      .   S
    N35    O38       2.93454  1_545   S
    Zr3    O38       3.83316      .   S
    N35    O39       3.00228      .   S
    Zr8    O39       3.93472  1_655   S
    N35    O40       3.00212      .   S
    Zr4    O40       3.93405  1_565   S
    N35    O41       2.99804  1_455   S
    Zr7    O41       3.94668      .   S
    N35    O42       2.93367  1_455   S
    Zr1    O42       3.83163      .   S
    N43    O44       2.93362      .   S
    Zr3    O44       3.83147      .   S
    N43    O45       3.00205      .   S
    Zr5    O45       3.93429  1_556   S
    N43    O46       2.99546      .   S
    Zr7    O46       3.94216      .   S
    N43    O47       2.93455      .   S
    Zr1    O47       3.83314      .   S
    N43    O48       2.99800      .   S
    Zr9    O48       3.94661      .   S
    N49    O50       3.00225      .   S
    Zr9    O50       3.93482      .   S
    N49    O51       2.93530  1_565   S
    Zr2    O51       3.83343      .   S
    N49    O52       2.99833      .   S
    Zr6    O52       3.93760  1_545   S
    N49    O53       2.99764      .   S
    Zr5    O53       3.94638      .   S
    N49    O54       2.99690  1_565   S
    Zr8    O54       3.94430      .   S
    N55    O56       2.93604      .   S
    Zr3    O56       3.83378      .   S
    N55    O57       2.71910      .   S
    Zr0    O57       3.29309      .   S
    N55    O58       2.99854      .   S
    Zr10   O58       3.94866      .   S
    N55    O59       2.99839      .   S
    Zr6    O59       3.94754      .   S
    N55    O60       3.00123      .   S
    Zr5    O60       3.93275      .   S
    N55    O61       2.93054      .   S
    Zr1    O61       3.82480      .   S
