# CIF file generated by openbabel 2.4.90, see http://openbabel.sf.net
data_I
_chemical_name_common ''
_cell_length_a 15.743
_cell_length_b 15.75
_cell_length_c 20.005
_cell_angle_alpha 90.001
_cell_angle_beta 90
_cell_angle_gamma 90.008
_space_group_name_H-M_alt 'P 1'
_space_group_name_Hall 'P 1'
loop_
    _symmetry_equiv_pos_as_xyz
    x,y,z
loop_
    _atom_site_label
    _atom_site_type_symbol
    _atom_site_fract_x
    _atom_site_fract_y
    _atom_site_fract_z
    _atom_site_occupancy
    C0      C    0.24866   0.74805   0.60000   1.000
    C1      C    0.74843   0.24812   0.49995   1.000
    C2      C    0.74865   0.24808   0.99992   1.000
    C3      C    0.24843   0.74811   0.50002   1.000
    C4      C    0.08344   0.91516   0.99996   1.000
    C5      C    0.41500   0.58124   0.99999   1.000
    C6      C    0.58231   0.08127   0.50004   1.000
    C7      C    0.91475   0.41497   0.50003   1.000
    C8      C    0.91499   0.08125   0.99999   1.000
    C9      C    0.58333   0.41517   0.20000   1.000
    C10     C    0.41478   0.91495   0.49994   1.000
    C11     C    0.08228   0.58125   0.49993   1.000
    C12     C    0.15393   0.95969   0.73655   1.000
    C13     C    0.13669   0.94172   0.85036   1.000
    C14     C    0.21014   0.05571   0.05952   1.000
    C15     C    0.35683   0.83496   0.11581   1.000
    C16     C    0.34522   0.53794   0.73649   1.000
    C17     C    0.36226   0.55531   0.85034   1.000
    C18     C    0.28892   0.44050   0.06000   1.000
    C19     C    0.14126   0.66081   0.11560   1.000
    C20     C    0.53695   0.15476   0.23733   1.000
    C21     C    0.56048   0.13118   0.34972   1.000
    C22     C    0.44129   0.20675   0.56081   1.000
    C23     C    0.66159   0.35524   0.61537   1.000
    C24     C    0.96030   0.34216   0.23690   1.000
    C25     C    0.93665   0.36549   0.34938   1.000
    C26     C    0.05591   0.29007   0.56110   1.000
    C27     C    0.83608   0.14046   0.61497   1.000
    C28     C    0.84494   0.45889   0.76357   1.000
    C29     C    0.86151   0.44133   0.64973   1.000
    C30     C    0.78890   0.55565   0.44013   1.000
    C31     C    0.64075   0.33557   0.38450   1.000
    C32     C    0.65325   0.03711   0.76339   1.000
    C33     C    0.63614   0.05475   0.64950   1.000
    C34     C    0.70911   0.94068   0.43983   1.000
    C35     C    0.85637   0.16145   0.38443   1.000
    C36     C    0.46072   0.65433   0.26293   1.000
    C37     C    0.43779   0.63151   0.15034   1.000
    C38     C    0.55612   0.70657   0.93928   1.000
    C39     C    0.33601   0.85520   0.88461   1.000
    C40     C    0.03759   0.84247   0.26316   1.000
    C41     C    0.06169   0.86604   0.15072   1.000
    C42     C    0.94178   0.79029   0.93883   1.000
    C43     C    0.16175   0.64123   0.88440   1.000
    C44     C    0.84527   0.03798   0.26347   1.000
    C45     C    0.86223   0.05526   0.14960   1.000
    C46     C    0.78890   0.94049   0.93998   1.000
    C47     C    0.64127   0.16084   0.88429   1.000
    C48     C    0.65390   0.45969   0.26342   1.000
    C49     C    0.63658   0.44165   0.14963   1.000
    C50     C    0.71004   0.55570   0.94043   1.000
    C51     C    0.85682   0.33502   0.88420   1.000
    C52     C    0.46031   0.84216   0.76307   1.000
    C53     C    0.43672   0.86544   0.65057   1.000
    C54     C    0.55589   0.79001   0.43890   1.000
    C55     C    0.33605   0.64047   0.38499   1.000
    C56     C    0.03688   0.65480   0.76262   1.000
    C57     C    0.06047   0.63114   0.65026   1.000
    C58     C    0.94125   0.70675   0.43916   1.000
    C59     C    0.16162   0.85518   0.38458   1.000
    C60     C    0.15323   0.53710   0.23659   1.000
    C61     C    0.13617   0.55468   0.35040   1.000
    C62     C    0.20907   0.44070   0.56013   1.000
    C63     C    0.35636   0.66141   0.61554   1.000
    C64     C    0.34501   0.95884   0.23641   1.000
    C65     C    0.36165   0.94124   0.35023   1.000
    C66     C    0.28899   0.05567   0.55988   1.000
    C67     C    0.14074   0.83560   0.61537   1.000
    C68     C    0.53756   0.34250   0.73679   1.000
    C69     C    0.56159   0.36600   0.84925   1.000
    C70     C    0.44179   0.29024   0.06113   1.000
    C71     C    0.66178   0.14127   0.11550   1.000
    C72     C    0.96077   0.15439   0.73706   1.000
    C73     C    0.93776   0.13149   0.84963   1.000
    C74     C    0.05615   0.20657   0.06067   1.000
    C75     C    0.83601   0.35519   0.11538   1.000
    C76     C    0.09431   0.09444   0.55587   1.000
    C77     C    0.40296   0.40192   0.55600   1.000
    C78     C    0.40386   0.09456   0.05599   1.000
    C79     C    0.09478   0.40157   0.05602   1.000
    C80     C    0.90383   0.59457   0.94390   1.000
    C81     C    0.59474   0.90158   0.94396   1.000
    C82     C    0.59426   0.59439   0.44410   1.000
    C83     C    0.90297   0.90190   0.44395   1.000
    C84     C    0.11685   0.00830   0.71096   1.000
    C85     C    0.13161   0.02217   0.64279   1.000
    C86     C    0.08633   0.98674   0.86117   1.000
    C87     C    0.19133   0.96851   0.60510   1.000
    C88     C    0.23724   0.99287   0.06630   1.000
    C89     C    0.31061   0.87993   0.09655   1.000
    C90     C    0.38190   0.48908   0.71087   1.000
    C91     C    0.36648   0.47483   0.64283   1.000
    C92     C    0.41268   0.51033   0.86100   1.000
    C93     C    0.30641   0.52826   0.60525   1.000
    C94     C    0.26153   0.50321   0.06663   1.000
    C95     C    0.18767   0.61595   0.09653   1.000
    C96     C    0.48913   0.11707   0.21139   1.000
    C97     C    0.47545   0.13201   0.14323   1.000
    C98     C    0.51308   0.08315   0.36082   1.000
    C99     C    0.52890   0.19219   0.10580   1.000
    C100    C    0.50399   0.23434   0.56716   1.000
    C101    C    0.61675   0.30860   0.59653   1.000
    C102    C    0.00849   0.37960   0.21112   1.000
    C103    C    0.02247   0.36453   0.14301   1.000
    C104    C    0.98415   0.41337   0.36062   1.000
    C105    C    0.96896   0.30447   0.10547   1.000
    C106    C    0.99328   0.26220   0.56727   1.000
    C107    C    0.88076   0.18735   0.59627   1.000
    C108    C    0.88172   0.50777   0.78909   1.000
    C109    C    0.86684   0.52181   0.85721   1.000
    C110    C    0.91184   0.48638   0.63888   1.000
    C111    C    0.80709   0.46820   0.89491   1.000
    C112    C    0.76138   0.49298   0.43352   1.000
    C113    C    0.68729   0.38034   0.40365   1.000
    C114    C    0.61637   0.98836   0.78900   1.000
    C115    C    0.63153   0.97424   0.85709   1.000
    C116    C    0.58566   0.00982   0.63885   1.000
    C117    C    0.69146   0.02781   0.89470   1.000
    C118    C    0.73632   0.00353   0.43325   1.000
    C119    C    0.80998   0.11647   0.40345   1.000
    C120    C    0.50882   0.61689   0.28877   1.000
    C121    C    0.52244   0.63174   0.35696   1.000
    C122    C    0.48509   0.58343   0.13918   1.000
    C123    C    0.46885   0.69170   0.39440   1.000
    C124    C    0.49345   0.73423   0.93292   1.000
    C125    C    0.38080   0.80856   0.90350   1.000
    C126    C    0.98948   0.88002   0.28892   1.000
    C127    C    0.97531   0.86487   0.35699   1.000
    C128    C    0.01417   0.91389   0.13946   1.000
    C129    C    0.02861   0.80462   0.39447   1.000
    C130    C    0.00443   0.76251   0.93255   1.000
    C131    C    0.11700   0.68794   0.90326   1.000
    C132    C    0.88193   0.98908   0.28909   1.000
    C133    C    0.86651   0.97483   0.35713   1.000
    C134    C    0.91268   0.01032   0.13880   1.000
    C135    C    0.80644   0.02829   0.39471   1.000
    C136    C    0.76151   0.00324   0.93335   1.000
    C137    C    0.68767   0.11598   0.90344   1.000
    C138    C    0.61680   0.50825   0.28902   1.000
    C139    C    0.63156   0.52212   0.35719   1.000
    C140    C    0.58624   0.48670   0.13882   1.000
    C141    C    0.69130   0.46850   0.39487   1.000
    C142    C    0.73716   0.49289   0.93366   1.000
    C143    C    0.81058   0.37998   0.90345   1.000
    C144    C    0.50848   0.87960   0.78885   1.000
    C145    C    0.52244   0.86454   0.85690   1.000
    C146    C    0.48421   0.91334   0.63934   1.000
    C147    C    0.46896   0.80448   0.89450   1.000
    C148    C    0.49327   0.76215   0.43272   1.000
    C149    C    0.38074   0.68733   0.40370   1.000
    C150    C    0.98904   0.61710   0.78850   1.000
    C151    C    0.97539   0.63203   0.85670   1.000
    C152    C    0.01305   0.58313   0.63915   1.000
    C153    C    0.02889   0.69220   0.89417   1.000
    C154    C    0.00399   0.73433   0.43281   1.000
    C155    C    0.11677   0.80856   0.40343   1.000
    C156    C    0.11637   0.48837   0.21097   1.000
    C157    C    0.13155   0.47424   0.14289   1.000
    C158    C    0.08567   0.50978   0.36113   1.000
    C159    C    0.19147   0.52778   0.10528   1.000
    C160    C    0.23629   0.50351   0.56670   1.000
    C161    C    0.30996   0.61644   0.59650   1.000
    C162    C    0.38180   0.00775   0.21088   1.000
    C163    C    0.36690   0.02179   0.14276   1.000
    C164    C    0.41194   0.98632   0.36108   1.000
    C165    C    0.30714   0.96816   0.10507   1.000
    C166    C    0.26143   0.99298   0.56647   1.000
    C167    C    0.18729   0.88036   0.59629   1.000
    C168    C    0.48947   0.38005   0.71103   1.000
    C169    C    0.47530   0.36489   0.64296   1.000
    C170    C    0.51409   0.41388   0.86050   1.000
    C171    C    0.52860   0.30464   0.60549   1.000
    C172    C    0.50443   0.26248   0.06740   1.000
    C173    C    0.61702   0.18796   0.09671   1.000
    C174    C    0.00888   0.11694   0.71121   1.000
    C175    C    0.02250   0.13179   0.64303   1.000
    C176    C    0.98510   0.08343   0.86080   1.000
    C177    C    0.96886   0.19175   0.60550   1.000
    C178    C    0.99345   0.23423   0.06704   1.000
    C179    C    0.88080   0.30856   0.09640   1.000
    C180    C    0.05638   0.05604   0.74645   1.000
    C181    C    0.08516   0.08516   0.60900   1.000
    C182    C    0.04341   0.04288   0.81820   1.000
    C183    C    0.44245   0.44129   0.74627   1.000
    C184    C    0.41252   0.41150   0.60945   1.000
    C185    C    0.45574   0.45449   0.81800   1.000
    C186    C    0.44198   0.05574   0.24646   1.000
    C187    C    0.41304   0.08514   0.10950   1.000
    C188    C    0.45492   0.04249   0.31823   1.000
    C189    C    0.05578   0.44065   0.24630   1.000
    C190    C    0.08532   0.41107   0.10949   1.000
    C191    C    0.04260   0.45387   0.31810   1.000
    C192    C    0.94190   0.55577   0.75350   1.000
    C193    C    0.91299   0.58515   0.89047   1.000
    C194    C    0.95483   0.54251   0.68173   1.000
    C195    C    0.55578   0.94064   0.75360   1.000
    C196    C    0.58529   0.91108   0.89049   1.000
    C197    C    0.54261   0.95386   0.68182   1.000
    C198    C    0.55632   0.55599   0.25353   1.000
    C199    C    0.58511   0.58510   0.39059   1.000
    C200    C    0.54335   0.54283   0.18170   1.000
    C201    C    0.94247   0.94128   0.25369   1.000
    C202    C    0.91253   0.91149   0.39050   1.000
    C203    C    0.95576   0.95447   0.18192   1.000
    C204    C    0.05602   0.99358   0.92403   1.000
    C205    C    0.20168   0.92435   0.03670   1.000
    C206    C    0.24738   0.85389   0.05566   1.000
    C207    C    0.44290   0.50329   0.92394   1.000
    C208    C    0.29684   0.57176   0.03690   1.000
    C209    C    0.25080   0.64211   0.05560   1.000
    C210    C    0.50512   0.05356   0.42379   1.000
    C211    C    0.57254   0.19906   0.53743   1.000
    C212    C    0.64288   0.24533   0.55577   1.000
    C213    C    0.99205   0.44283   0.42364   1.000
    C214    C    0.92469   0.29716   0.53737   1.000
    C215    C    0.85449   0.25053   0.55548   1.000
    C216    C    0.94201   0.49326   0.57598   1.000
    C217    C    0.79654   0.42438   0.46322   1.000
    C218    C    0.75038   0.35411   0.44458   1.000
    C219    C    0.55533   0.00000   0.57599   1.000
    C220    C    0.70070   0.07197   0.46284   1.000
    C221    C    0.74662   0.14244   0.44424   1.000
    C222    C    0.49286   0.55380   0.07619   1.000
    C223    C    0.42487   0.69911   0.96272   1.000
    C224    C    0.35458   0.74542   0.94436   1.000
    C225    C    0.00000   0.94318   0.07639   1.000
    C226    C    0.07302   0.79749   0.96245   1.000
    C227    C    0.14323   0.75103   0.94416   1.000
    C228    C    0.94291   0.00000   0.07600   1.000
    C229    C    0.79683   0.07179   0.96303   1.000
    C230    C    0.75080   0.14214   0.94437   1.000
    C231    C    0.55594   0.49353   0.07595   1.000
    C232    C    0.70160   0.42437   0.96318   1.000
    C233    C    0.74734   0.35392   0.94432   1.000
    C234    C    0.49208   0.94280   0.57632   1.000
    C235    C    0.42469   0.79714   0.46261   1.000
    C236    C    0.35448   0.75052   0.44449   1.000
    C237    C    0.00000   0.55354   0.57618   1.000
    C238    C    0.07253   0.69905   0.46255   1.000
    C239    C    0.14288   0.74529   0.44420   1.000
    C240    C    0.05533   0.50290   0.42398   1.000
    C241    C    0.20067   0.57196   0.53713   1.000
    C242    C    0.24661   0.64242   0.55573   1.000
    C243    C    0.44210   0.99324   0.42398   1.000
    C244    C    0.29658   0.92439   0.53675   1.000
    C245    C    0.25038   0.85412   0.55537   1.000
    C246    C    0.50613   0.44318   0.92357   1.000
    C247    C    0.57300   0.29748   0.03752   1.000
    C248    C    0.64323   0.25105   0.05581   1.000
    C249    C    0.99290   0.05381   0.92378   1.000
    C250    C    0.92487   0.19911   0.03724   1.000
    C251    C    0.85458   0.24542   0.05561   1.000
    O252    O    0.22453   0.88912   0.04618   1.000
    O253    O    0.21946   0.95861   0.05150   1.000
    O254    O    0.14256   0.91975   0.01833   1.000
    O255    O    0.27382   0.60693   0.04625   1.000
    O256    O    0.27919   0.53749   0.05176   1.000
    O257    O    0.35592   0.57650   0.01845   1.000
    O258    O    0.88972   0.22226   0.04643   1.000
    O259    O    0.95916   0.21667   0.05214   1.000
    O260    O    0.91993   0.14018   0.01861   1.000
    O261    O    0.60811   0.27427   0.04666   1.000
    O262    O    0.53871   0.27998   0.05246   1.000
    O263    O    0.21924   0.62903   0.07606   1.000
    O264    O    0.86769   0.27699   0.07601   1.000
    O265    O    0.80162   0.24675   0.02776   1.000
    O266    O    0.27899   0.86691   0.07610   1.000
    O267    O    0.63013   0.21951   0.07626   1.000
    O268    O    0.69594   0.24956   0.02786   1.000
    O269    O    0.40845   0.08985   0.08274   1.000
    O270    O    0.09005   0.40632   0.08276   1.000
    O271    O    0.22369   0.02429   0.06291   1.000
    O272    O    0.27523   0.47185   0.06331   1.000
    O273    O    0.02480   0.22040   0.06385   1.000
    O274    O    0.47311   0.27636   0.06426   1.000
    O275    O    0.27219   0.98051   0.08568   1.000
    O276    O    0.22650   0.51550   0.08596   1.000
    O277    O    0.98121   0.26935   0.08625   1.000
    O278    O    0.51666   0.22734   0.08660   1.000
    O279    O    0.52440   0.52366   0.07607   1.000
    O280    O    0.57109   0.49011   0.10738   1.000
    O281    O    0.97145   0.97159   0.07619   1.000
    O282    O    0.92780   0.00516   0.10740   1.000
    O283    O    0.92895   0.04062   0.03799   1.000
    O284    O    0.48898   0.56861   0.10768   1.000
    O285    O    0.45393   0.56752   0.03809   1.000
    O286    O    0.00708   0.92853   0.10793   1.000
    O287    O    0.04172   0.92917   0.03817   1.000
    O288    O    0.92488   0.30652   0.10093   1.000
    O289    O    0.85840   0.33187   0.10589   1.000
    O290    O    0.18957   0.57187   0.10091   1.000
    O291    O    0.16447   0.63838   0.10606   1.000
    O292    O    0.30887   0.92404   0.10081   1.000
    O293    O    0.33372   0.85744   0.10618   1.000
    O294    O    0.57296   0.19007   0.10125   1.000
    O295    O    0.63940   0.16462   0.10611   1.000
    O296    O    0.33702   0.99497   0.12391   1.000
    O297    O    0.16151   0.50101   0.12408   1.000
    O298    O    0.99571   0.33450   0.12424   1.000
    O299    O    0.50218   0.16210   0.12451   1.000
    O300    O    0.10843   0.44265   0.12619   1.000
    O301    O    0.05389   0.38780   0.12625   1.000
    O302    O    0.38997   0.05346   0.12613   1.000
    O303    O    0.44424   0.10857   0.12636   1.000
    O304    O    0.88746   0.03279   0.14420   1.000
    O305    O    0.93422   0.98239   0.16036   1.000
    O306    O    0.61141   0.46417   0.14422   1.000
    O307    O    0.56479   0.51477   0.16026   1.000
    O308    O    0.46144   0.60747   0.14476   1.000
    O309    O    0.51422   0.56313   0.16044   1.000
    O310    O    0.03793   0.88996   0.14509   1.000
    O311    O    0.98496   0.93418   0.16069   1.000
    O312    O    0.37435   0.01477   0.17682   1.000
    O313    O    0.12396   0.48130   0.17693   1.000
    O314    O    0.01548   0.37206   0.17706   1.000
    O315    O    0.48229   0.12454   0.17731   1.000
    O316    O    0.54983   0.54941   0.21761   1.000
    O317    O    0.94912   0.94788   0.21780   1.000
    O318    O    0.36341   0.98329   0.22365   1.000
    O319    O    0.41189   0.03174   0.22867   1.000
    O320    O    0.13480   0.51273   0.22378   1.000
    O321    O    0.08607   0.46451   0.22863   1.000
    O322    O    0.98440   0.36088   0.22401   1.000
    O323    O    0.03213   0.41012   0.22871   1.000
    O324    O    0.51304   0.13592   0.22436   1.000
    O325    O    0.46555   0.08640   0.22893   1.000
    O326    O    0.04919   0.44726   0.28220   1.000
    O327    O    0.44845   0.04912   0.28235   1.000
    O328    O    0.53257   0.58644   0.27115   1.000
    O329    O    0.58656   0.53212   0.27127   1.000
    O330    O    0.96598   0.91065   0.27131   1.000
    O331    O    0.91220   0.96518   0.27139   1.000
    O332    O    0.48477   0.63561   0.27585   1.000
    O333    O    0.01354   0.86124   0.27604   1.000
    O334    O    0.63535   0.48397   0.27622   1.000
    O335    O    0.86360   0.01353   0.27628   1.000
    O336    O    0.51563   0.62431   0.32287   1.000
    O337    O    0.98240   0.87245   0.32295   1.000
    O338    O    0.62418   0.51519   0.32310   1.000
    O339    O    0.87422   0.98195   0.32311   1.000
    O340    O    0.01338   0.43362   0.33936   1.000
    O341    O    0.06413   0.48183   0.33961   1.000
    O342    O    0.48400   0.06282   0.33952   1.000
    O343    O    0.43343   0.01440   0.33966   1.000
    O344    O    0.96040   0.38943   0.35500   1.000
    O345    O    0.53678   0.10716   0.35527   1.000
    O346    O    0.38680   0.96378   0.35565   1.000
    O347    O    0.11092   0.53223   0.35576   1.000
    O348    O    0.55377   0.60842   0.37377   1.000
    O349    O    0.49565   0.66172   0.37568   1.000
    O350    O    0.94392   0.88818   0.37374   1.000
    O351    O    0.00196   0.83474   0.37573   1.000
    O352    O    0.88952   0.94316   0.37382   1.000
    O353    O    0.83647   0.00156   0.37592   1.000
    O354    O    0.60833   0.55361   0.37389   1.000
    O355    O    0.66143   0.49531   0.37603   1.000
    O356    O    0.98810   0.42810   0.39213   1.000
    O357    O    0.50910   0.06835   0.39230   1.000
    O358    O    0.42702   0.98978   0.39253   1.000
    O359    O    0.07050   0.50634   0.39255   1.000
    O360    O    0.83317   0.13896   0.39394   1.000
    O361    O    0.66402   0.35796   0.39408   1.000
    O362    O    0.13919   0.83187   0.39400   1.000
    O363    O    0.35840   0.66390   0.39435   1.000
    O364    O    0.90775   0.90670   0.41723   1.000
    O365    O    0.58968   0.58975   0.41734   1.000
    O366    O    0.42480   0.68952   0.39905   1.000
    O367    O    0.48106   0.72693   0.41356   1.000
    O368    O    0.07269   0.80659   0.39895   1.000
    O369    O    0.01630   0.76947   0.41364   1.000
    O370    O    0.80821   0.07238   0.39908   1.000
    O371    O    0.77138   0.01591   0.41398   1.000
    O372    O    0.68929   0.42442   0.39926   1.000
    O373    O    0.72634   0.48074   0.41419   1.000
    O374    O    0.12982   0.77692   0.42381   1.000
    O375    O    0.77830   0.12945   0.42384   1.000
    O376    O    0.71883   0.36723   0.42412   1.000
    O377    O    0.36761   0.71893   0.42409   1.000
    O378    O    0.02369   0.47287   0.42381   1.000
    O379    O    0.95340   0.42890   0.46183   1.000
    O380    O    0.47361   0.02340   0.42389   1.000
    O381    O    0.54371   0.06741   0.46192   1.000
    O382    O    0.06880   0.54208   0.46196   1.000
    O383    O    0.42844   0.95410   0.46196   1.000
    O384    O    0.52458   0.77608   0.43581   1.000
    O385    O    0.45898   0.77964   0.44766   1.000
    O386    O    0.97262   0.72054   0.43598   1.000
    O387    O    0.03826   0.71669   0.44768   1.000
    O388    O    0.72271   0.97211   0.43654   1.000
    O389    O    0.71851   0.03775   0.44805   1.000
    O390    O    0.77514   0.52431   0.43683   1.000
    O391    O    0.77896   0.45868   0.44837   1.000
    O392    O    0.10770   0.72217   0.45337   1.000
    O393    O    0.19565   0.74670   0.47211   1.000
    O394    O    0.72366   0.10720   0.45354   1.000
    O395    O    0.74753   0.19528   0.47210   1.000
    O396    O    0.38958   0.77383   0.45355   1.000
    O397    O    0.30146   0.74932   0.47225   1.000
    O398    O    0.77346   0.38925   0.45390   1.000
    O399    O    0.74941   0.30112   0.47226   1.000
    O400    O    0.07740   0.64015   0.48124   1.000
    O401    O    0.41974   0.85604   0.48127   1.000
    O402    O    0.64150   0.07662   0.48144   1.000
    O403    O    0.85565   0.41968   0.48163   1.000
    O404    O    0.14148   0.57661   0.51853   1.000
    O405    O    0.04114   0.56739   0.53805   1.000
    O406    O    0.35568   0.91967   0.51834   1.000
    O407    O    0.45343   0.92888   0.53813   1.000
    O408    O    0.80146   0.24932   0.52772   1.000
    O409    O    0.69566   0.24673   0.52786   1.000
    O410    O    0.24941   0.80112   0.52769   1.000
    O411    O    0.24752   0.69527   0.52787   1.000
    O412    O    0.24854   0.74808   0.55001   1.000
    O413    O    0.91972   0.35606   0.51870   1.000
    O414    O    0.92838   0.45411   0.53800   1.000
    O415    O    0.57742   0.14016   0.51874   1.000
    O416    O    0.56882   0.04063   0.53802   1.000
    O417    O    0.27348   0.88926   0.54606   1.000
    O418    O    0.27901   0.95868   0.55161   1.000
    O419    O    0.22364   0.60719   0.54643   1.000
    O420    O    0.21848   0.53774   0.55191   1.000
    O421    O    0.88959   0.27384   0.54642   1.000
    O422    O    0.95898   0.27968   0.55232   1.000
    O423    O    0.60771   0.22220   0.54660   1.000
    O424    O    0.53827   0.21670   0.55229   1.000
    O425    O    0.21884   0.86724   0.57583   1.000
    O426    O    0.24952   0.80109   0.57768   1.000
    O427    O    0.86763   0.21894   0.57588   1.000
    O428    O    0.27828   0.62943   0.57611   1.000
    O429    O    0.24763   0.69524   0.57786   1.000
    O430    O    0.62982   0.27697   0.57615   1.000
    O431    O    0.08973   0.08980   0.58244   1.000
    O432    O    0.40774   0.40671   0.58273   1.000
    O433    O    0.27521   0.02433   0.56317   1.000
    O434    O    0.22268   0.47211   0.56341   1.000
    O435    O    0.47264   0.22054   0.56399   1.000
    O436    O    0.02459   0.27613   0.56419   1.000
    O437    O    0.22638   0.98075   0.58578   1.000
    O438    O    0.27135   0.51589   0.58597   1.000
    O439    O    0.51630   0.26949   0.58632   1.000
    O440    O    0.98107   0.22697   0.58638   1.000
    O441    O    0.97101   0.52340   0.57608   1.000
    O442    O    0.92693   0.48982   0.60743   1.000
    O443    O    0.52371   0.97140   0.57615   1.000
    O444    O    0.57050   0.00491   0.60742   1.000
    O445    O    0.00652   0.56833   0.60767   1.000
    O446    O    0.48814   0.92807   0.60783   1.000
    O447    O    0.92481   0.18955   0.60088   1.000
    O448    O    0.85842   0.16390   0.60562   1.000
    O449    O    0.18931   0.92444   0.60069   1.000
    O450    O    0.16402   0.85798   0.60583   1.000
    O451    O    0.30819   0.57235   0.60088   1.000
    O452    O    0.33316   0.63893   0.60602   1.000
    O453    O    0.57268   0.30662   0.60101   1.000
    O454    O    0.63917   0.33192   0.60595   1.000
    O455    O    0.16147   0.99534   0.62394   1.000
    O456    O    0.33645   0.50155   0.62404   1.000
    O457    O    0.50195   0.33477   0.62422   1.000
    O458    O    0.99568   0.16177   0.62426   1.000
    O459    O    0.10838   0.05366   0.62589   1.000
    O460    O    0.05383   0.10847   0.62601   1.000
    O461    O    0.38950   0.44317   0.62614   1.000
    O462    O    0.44391   0.38820   0.62621   1.000
    O463    O    0.61090   0.03228   0.64417   1.000
    O464    O    0.56414   0.98184   0.66034   1.000
    O465    O    0.88668   0.46386   0.64430   1.000
    O466    O    0.93334   0.51445   0.66030   1.000
    O467    O    0.03676   0.60714   0.64470   1.000
    O468    O    0.98394   0.56282   0.66044   1.000
    O469    O    0.46047   0.88939   0.64495   1.000
    O470    O    0.51341   0.93360   0.66058   1.000
    O471    O    0.12423   0.01523   0.67688   1.000
    O472    O    0.37419   0.48195   0.67685   1.000
    O473    O    0.48239   0.37247   0.67699   1.000
    O474    O    0.01569   0.12437   0.67712   1.000
    O475    O    0.94836   0.54914   0.71761   1.000
    O476    O    0.54919   0.94725   0.71771   1.000
    O477    O    0.36356   0.51351   0.72368   1.000
    O478    O    0.41217   0.46519   0.72857   1.000
    O479    O    0.13539   0.98399   0.72375   1.000
    O480    O    0.08661   0.03217   0.72870   1.000
    O481    O    0.51352   0.36127   0.72391   1.000
    O482    O    0.46596   0.41067   0.72865   1.000
    O483    O    0.98483   0.13567   0.72413   1.000
    O484    O    0.03263   0.08649   0.72883   1.000
    O485    O    0.44909   0.44789   0.78213   1.000
    O486    O    0.04989   0.04946   0.78232   1.000
    O487    O    0.96547   0.58643   0.77100   1.000
    O488    O    0.91181   0.53177   0.77129   1.000
    O489    O    0.53213   0.91012   0.77123   1.000
    O490    O    0.58607   0.96450   0.77130   1.000
    O491    O    0.01296   0.63595   0.77556   1.000
    O492    O    0.48440   0.86088   0.77596   1.000
    O493    O    0.63481   0.01273   0.77620   1.000
    O494    O    0.86333   0.48333   0.77633   1.000
    O495    O    0.98222   0.62456   0.82260   1.000
    O496    O    0.51546   0.87207   0.82288   1.000
    O497    O    0.62395   0.98130   0.82304   1.000
    O498    O    0.87428   0.51479   0.82315   1.000
    O499    O    0.48491   0.43418   0.83925   1.000
    O500    O    0.43421   0.48241   0.83950   1.000
    O501    O    0.01425   0.06315   0.83950   1.000
    O502    O    0.06487   0.01481   0.83969   1.000
    O503    O    0.53784   0.38994   0.85487   1.000
    O504    O    0.96143   0.10746   0.85521   1.000
    O505    O    0.38747   0.53282   0.85567   1.000
    O506    O    0.11151   0.96423   0.85576   1.000
    O507    O    0.94419   0.60859   0.87358   1.000
    O508    O    0.00214   0.66212   0.87543   1.000
    O509    O    0.55387   0.88781   0.87369   1.000
    O510    O    0.49570   0.83451   0.87570   1.000
    O511    O    0.60841   0.94266   0.87379   1.000
    O512    O    0.66150   0.00102   0.87589   1.000
    O513    O    0.88991   0.55348   0.87384   1.000
    O514    O    0.83696   0.49500   0.87606   1.000
    O515    O    0.51011   0.42853   0.89203   1.000
    O516    O    0.98900   0.06862   0.89229   1.000
    O517    O    0.42779   0.50681   0.89247   1.000
    O518    O    0.07117   0.99016   0.89260   1.000
    O519    O    0.83370   0.35750   0.89382   1.000
    O520    O    0.66447   0.13841   0.89387   1.000
    O521    O    0.13937   0.66459   0.89383   1.000
    O522    O    0.35840   0.83188   0.89406   1.000
    O523    O    0.90841   0.58986   0.91718   1.000
    O524    O    0.59002   0.90633   0.91722   1.000
    O525    O    0.07294   0.69007   0.89871   1.000
    O526    O    0.01666   0.72736   0.91336   1.000
    O527    O    0.42488   0.80652   0.89900   1.000
    O528    O    0.48120   0.76936   0.91371   1.000
    O529    O    0.68957   0.07190   0.89907   1.000
    O530    O    0.72649   0.01552   0.91402   1.000
    O531    O    0.80883   0.42409   0.89918   1.000
    O532    O    0.77212   0.48055   0.91429   1.000
    O533    O    0.13012   0.71948   0.92371   1.000
    O534    O    0.71924   0.12906   0.92391   1.000
    O535    O    0.77896   0.36695   0.92388   1.000
    O536    O    0.36769   0.77699   0.92393   1.000
    O537    O    0.47452   0.47323   0.92375   1.000
    O538    O    0.02446   0.02369   0.92391   1.000
    O539    O    0.95394   0.06753   0.96189   1.000
    O540    O    0.42895   0.54226   0.96196   1.000
    O541    O    0.06973   0.95437   0.96200   1.000
    O542    O    0.97311   0.77640   0.93569   1.000
    O543    O    0.03872   0.78000   0.94750   1.000
    O544    O    0.52479   0.72040   0.93610   1.000
    O545    O    0.45916   0.71667   0.94782   1.000
    O546    O    0.77521   0.97186   0.93666   1.000
    O547    O    0.77917   0.03751   0.94819   1.000
    O548    O    0.72360   0.52430   0.93705   1.000
    O549    O    0.71938   0.45863   0.94842   1.000
    O550    O    0.10812   0.77426   0.95330   1.000
    O551    O    0.72447   0.38915   0.95375   1.000
    O552    O    0.74800   0.30100   0.97212   1.000
    O553    O    0.38973   0.72226   0.95354   1.000
    O554    O    0.77382   0.10696   0.95370   1.000
    O555    O    0.74973   0.19511   0.97215   1.000
    O556    O    0.07823   0.85633   0.98120   1.000
    O557    O    0.41993   0.64017   0.98136   1.000
    O558    O    0.85591   0.07652   0.98151   1.000
loop_
    _geom_bond_atom_site_label_1
    _geom_bond_atom_site_label_2
    _geom_bond_distance
    _geom_bond_site_symmetry_2
    _ccdc_geom_bond_type
    C205   O252      0.68799      .   S
    C206   O252      0.68799      .   S
    C205   O253      0.67612      .   S
    C88    O253      0.67612      .   S
    C205   O254      1.00319      .   S
    C4     O254      1.00319  1_556   S
    C208   O255      0.68796      .   S
    C209   O255      0.68796      .   S
    C208   O256      0.67605      .   S
    C94    O256      0.67605      .   S
    C208   O257      1.00342      .   S
    C5     O257      1.00342  1_556   S
    C250   O258      0.68768      .   S
    C251   O258      0.68768      .   S
    C250   O259      0.67586      .   S
    C178   O259      0.67586      .   S
    C250   O260      1.00317      .   S
    C8     O260      1.00317  1_556   S
    C247   O261      0.68762      .   S
    C248   O261      0.68762      .   S
    C247   O262      0.67575      .   S
    C172   O262      0.67575      .   S
    C209   O263      0.67596      .   S
    C95    O263      0.67596      .   S
    C251   O264      0.67545      .   S
    C179   O264      0.67545      .   S
    C251   O265      1.00299      .   S
    C2     O265      1.00299  1_556   S
    C206   O266      0.67603      .   S
    C89    O266      0.67603      .   S
    C248   O267      0.67585      .   S
    C173   O267      0.67585      .   S
    C248   O268      1.00085      .   S
    C2     O268      1.00085  1_556   S
    C78    O269      0.54516      .   S
    C187   O269      0.54516      .   S
    C79    O270      0.54515      .   S
    C190   O270      0.54515      .   S
    C14    O271      0.54320      .   S
    C88    O271      0.54320  1_565   S
    C18    O272      0.54302      .   S
    C94    O272      0.54302      .   S
    C74    O273      0.54320      .   S
    C178   O273      0.54320  1_655   S
    C70    O274      0.54298      .   S
    C172   O274      0.54298      .   S
    C88    O275      0.70071      .   S
    C165   O275      0.70071      .   S
    C94    O276      0.70071      .   S
    C159   O276      0.70071      .   S
    C178   O277      0.70069      .   S
    C105   O277      0.70069      .   S
    C172   O278      0.70079      .   S
    C99    O278      0.70079      .   S
    C231   O279      0.68696      .   S
    C222   O279      0.68696      .   S
    C231   O280      0.67471      .   S
    C140   O280      0.67471      .   S
    C228   O281      0.63423  1_545   S
    C225   O281      0.63423  1_455   S
    C228   O282      0.67660      .   S
    C134   O282      0.67660      .   S
    C228   O283      1.01771      .   S
    C8     O283      1.01771  1_556   S
    C222   O284      0.67464      .   S
    C122   O284      0.67464      .   S
    C222   O285      1.00166      .   S
    C5     O285      1.00166  1_556   S
    C225   O286      0.68092      .   S
    C128   O286      0.68092      .   S
    C225   O287      1.03179      .   S
    C4     O287      1.03179  1_556   S
    C179   O288      0.70060      .   S
    C105   O288      0.70060      .   S
    C179   O289      0.54334      .   S
    C75    O289      0.54334      .   S
    C95    O290      0.70050      .   S
    C159   O290      0.70050      .   S
    C95    O291      0.54283      .   S
    C19    O291      0.54283      .   S
    C89    O292      0.70052      .   S
    C165   O292      0.70052      .   S
    C89    O293      0.54308      .   S
    C15    O293      0.54308      .   S
    C173   O294      0.70038      .   S
    C99    O294      0.70038      .   S
    C173   O295      0.54282      .   S
    C71    O295      0.54282      .   S
    C165   O296      0.73601      .   S
    C163   O296      0.73601  1_545   S
    C159   O297      0.73604      .   S
    C157   O297      0.73604      .   S
    C105   O298      0.73622      .   S
    C103   O298      0.73622  1_455   S
    C99    O299      0.73604      .   S
    C97    O299      0.73604      .   S
    C190   O300      0.70104      .   S
    C157   O300      0.70104      .   S
    C190   O301      0.70104      .   S
    C103   O301      0.70104      .   S
    C187   O302      0.70101      .   S
    C163   O302      0.70101      .   S
    C187   O303      0.70097      .   S
    C97    O303      0.70097      .   S
    C134   O304      0.54287      .   S
    C45    O304      0.54287      .   S
    C134   O305      0.70318  1_545   S
    C203   O305      0.70318      .   S
    C140   O306      0.54275      .   S
    C49    O306      0.54275      .   S
    C140   O307      0.70242      .   S
    C200   O307      0.70242      .   S
    C122   O308      0.54274      .   S
    C37    O308      0.54274      .   S
    C122   O309      0.70242      .   S
    C200   O309      0.70242      .   S
    C128   O310      0.54278      .   S
    C41    O310      0.54278      .   S
    C128   O311      0.70279  1_455   S
    C203   O311      0.70279      .   S
    C163   O312      0.70019      .   S
    C162   O312      0.70019      .   S
    C157   O313      0.70027      .   S
    C156   O313      0.70027      .   S
    C103   O314      0.70022      .   S
    C102   O314      0.70022      .   S
    C97    O315      0.70018      .   S
    C96    O315      0.70018      .   S
    C200   O316      0.73305      .   S
    C198   O316      0.73305      .   S
    C203   O317      0.73286      .   S
    C201   O317      0.73286      .   S
    C162   O318      0.54529  1_545   S
    C64    O318      0.54529      .   S
    C162   O319      0.70277      .   S
    C186   O319      0.70277      .   S
    C156   O320      0.54512      .   S
    C60    O320      0.54512      .   S
    C156   O321      0.70250      .   S
    C189   O321      0.70250      .   S
    C102   O322      0.54522  1_455   S
    C24    O322      0.54522      .   S
    C102   O323      0.70249      .   S
    C189   O323      0.70249      .   S
    C96    O324      0.54508      .   S
    C20    O324      0.54508      .   S
    C96    O325      0.70282      .   S
    C186   O325      0.70282      .   S
    C189   O326      0.73306      .   S
    C191   O326      0.73306      .   S
    C186   O327      0.73254      .   S
    C188   O327      0.73254      .   S
    C198   O328      0.70290      .   S
    C120   O328      0.70290      .   S
    C198   O329      0.70286      .   S
    C138   O329      0.70286      .   S
    C201   O330      0.70279      .   S
    C126   O330      0.70279      .   S
    C201   O331      0.70296      .   S
    C132   O331      0.70296      .   S
    C36    O332      0.54509      .   S
    C120   O332      0.54509      .   S
    C40    O333      0.54522      .   S
    C126   O333      0.54522  1_655   S
    C48    O334      0.54510      .   S
    C138   O334      0.54510      .   S
    C44    O335      0.54527      .   S
    C132   O335      0.54527  1_565   S
    C120   O336      0.70028      .   S
    C121   O336      0.70028      .   S
    C126   O337      0.70020      .   S
    C127   O337      0.70020      .   S
    C138   O338      0.70026      .   S
    C139   O338      0.70026      .   S
    C132   O339      0.70037      .   S
    C133   O339      0.70037      .   S
    C191   O340      0.70303      .   S
    C104   O340      0.70303  1_655   S
    C191   O341      0.70284      .   S
    C158   O341      0.70284      .   S
    C188   O342      0.70250      .   S
    C98    O342      0.70250      .   S
    C188   O343      0.70273      .   S
    C164   O343      0.70273  1_565   S
    C25    O344      0.54276      .   S
    C104   O344      0.54276      .   S
    C21    O345      0.54274      .   S
    C98    O345      0.54274      .   S
    C65    O346      0.54269      .   S
    C164   O346      0.54269      .   S
    C61    O347      0.54273      .   S
    C158   O347      0.54273      .   S
    C121   O348      0.70098      .   S
    C199   O348      0.70098      .   S
    C121   O349      0.73571      .   S
    C123   O349      0.73571      .   S
    C127   O350      0.70099      .   S
    C202   O350      0.70099      .   S
    C127   O351      0.73607  1_655   S
    C129   O351      0.73607      .   S
    C133   O352      0.70106      .   S
    C202   O352      0.70106      .   S
    C133   O353      0.73629  1_565   S
    C135   O353      0.73629      .   S
    C139   O354      0.70098      .   S
    C199   O354      0.70098      .   S
    C139   O355      0.73591      .   S
    C141   O355      0.73591      .   S
    C104   O356      0.67455      .   S
    C213   O356      0.67455      .   S
    C98    O357      0.67450      .   S
    C210   O357      0.67450      .   S
    C164   O358      0.67464      .   S
    C243   O358      0.67464      .   S
    C158   O359      0.67467      .   S
    C240   O359      0.67467      .   S
    C35    O360      0.54311      .   S
    C119   O360      0.54311      .   S
    C31    O361      0.54326      .   S
    C113   O361      0.54326      .   S
    C59    O362      0.54309      .   S
    C155   O362      0.54309      .   S
    C55    O363      0.54309      .   S
    C149   O363      0.54309      .   S
    C202   O364      0.54516      .   S
    C83    O364      0.54516      .   S
    C199   O365      0.54499      .   S
    C82    O365      0.54499      .   S
    C123   O366      0.70057      .   S
    C149   O366      0.70057      .   S
    C123   O367      0.70112      .   S
    C148   O367      0.70112      .   S
    C129   O368      0.70037      .   S
    C155   O368      0.70037      .   S
    C129   O369      0.70071      .   S
    C154   O369      0.70071      .   S
    C135   O370      0.70045      .   S
    C119   O370      0.70045      .   S
    C135   O371      0.70090      .   S
    C118   O371      0.70090      .   S
    C141   O372      0.70045      .   S
    C113   O372      0.70045      .   S
    C141   O373      0.70066      .   S
    C112   O373      0.70066      .   S
    C155   O374      0.67583      .   S
    C239   O374      0.67583      .   S
    C119   O375      0.67603      .   S
    C221   O375      0.67603      .   S
    C113   O376      0.67597      .   S
    C218   O376      0.67597      .   S
    C149   O377      0.67590      .   S
    C236   O377      0.67590      .   S
    C213   O378      0.68691  1_655   S
    C240   O378      0.68691      .   S
    C213   O379      1.00106      .   S
    C7     O379      1.00106      .   S
    C210   O380      0.68678      .   S
    C243   O380      0.68678  1_565   S
    C210   O381      0.99920      .   S
    C6     O381      0.99920      .   S
    C240   O382      1.00138      .   S
    C11    O382      1.00138      .   S
    C243   O383      1.00180      .   S
    C10    O383      1.00180      .   S
    C148   O384      0.54302      .   S
    C54    O384      0.54302      .   S
    C148   O385      0.67585      .   S
    C235   O385      0.67585      .   S
    C154   O386      0.54317  1_455   S
    C58    O386      0.54317      .   S
    C154   O387      0.67583      .   S
    C238   O387      0.67583      .   S
    C118   O388      0.54322  1_545   S
    C34    O388      0.54322      .   S
    C118   O389      0.67585      .   S
    C220   O389      0.67585      .   S
    C112   O390      0.54301      .   S
    C30    O390      0.54301      .   S
    C112   O391      0.67578      .   S
    C217   O391      0.67578      .   S
    C239   O392      0.68770      .   S
    C238   O392      0.68770      .   S
    C239   O393      1.00130      .   S
    C3     O393      1.00130      .   S
    C221   O394      0.68787      .   S
    C220   O394      0.68787      .   S
    C221   O395      1.00171      .   S
    C1     O395      1.00171      .   S
    C236   O396      0.68773      .   S
    C235   O396      0.68773      .   S
    C236   O397      1.00283      .   S
    C3     O397      1.00283      .   S
    C218   O398      0.68773      .   S
    C217   O398      0.68773      .   S
    C218   O399      1.00182      .   S
    C1     O399      1.00182      .   S
    C238   O400      1.00313      .   S
    C11    O400      1.00313      .   S
    C235   O401      1.00315      .   S
    C10    O401      1.00315      .   S
    C220   O402      1.00613      .   S
    C6     O402      1.00613      .   S
    C217   O403      1.00346      .   S
    C7     O403      1.00346      .   S
    C11    O404      1.00612      .   S
    C241   O404      1.00612      .   S
    C11    O405      1.02409      .   S
    C237   O405      1.02409      .   S
    C10    O406      1.00341      .   S
    C244   O406      1.00341      .   S
    C10    O407      1.00098      .   S
    C234   O407      1.00098      .   S
    C1     O408      1.00289      .   S
    C215   O408      1.00289      .   S
    C1     O409      1.00129      .   S
    C212   O409      1.00129      .   S
    C3     O410      1.00185      .   S
    C245   O410      1.00185      .   S
    C3     O411      1.00174      .   S
    C242   O411      1.00174      .   S
    C3     O412      1.00005      .   S
    C0     O412      1.00005      .   S
    C7     O413      1.00314      .   S
    C214   O413      1.00314      .   S
    C7     O414      1.00161      .   S
    C216   O414      1.00161      .   S
    C6     O415      1.00316      .   S
    C211   O415      1.00316      .   S
    C6     O416      1.01575      .   S
    C219   O416      1.01575      .   S
    C244   O417      0.68775      .   S
    C245   O417      0.68775      .   S
    C244   O418      0.67581      .   S
    C166   O418      0.67581      .   S
    C241   O419      0.68786      .   S
    C242   O419      0.68786      .   S
    C241   O420      0.67580      .   S
    C160   O420      0.67580      .   S
    C214   O421      0.68774      .   S
    C215   O421      0.68774      .   S
    C214   O422      0.67585      .   S
    C106   O422      0.67585      .   S
    C211   O423      0.68768      .   S
    C212   O423      0.68768      .   S
    C211   O424      0.67583      .   S
    C100   O424      0.67583      .   S
    C245   O425      0.67591      .   S
    C167   O425      0.67591      .   S
    C245   O426      0.94723      .   S
    C0     O426      0.94723      .   S
    C215   O427      0.67589      .   S
    C107   O427      0.67589      .   S
    C242   O428      0.67595      .   S
    C161   O428      0.67595      .   S
    C242   O429      0.94248      .   S
    C0     O429      0.94248      .   S
    C212   O430      0.67585      .   S
    C101   O430      0.67585      .   S
    C76    O431      0.54125      .   S
    C181   O431      0.54125      .   S
    C77    O432      0.54515      .   S
    C184   O432      0.54515      .   S
    C66    O433      0.54324      .   S
    C166   O433      0.54324  1_565   S
    C62    O434      0.54298      .   S
    C160   O434      0.54298      .   S
    C22    O435      0.54300      .   S
    C100   O435      0.54300      .   S
    C26    O436      0.54318      .   S
    C106   O436      0.54318  1_655   S
    C166   O437      0.70063      .   S
    C87    O437      0.70063      .   S
    C160   O438      0.70097      .   S
    C93    O438      0.70097      .   S
    C100   O439      0.70072      .   S
    C171   O439      0.70072      .   S
    C106   O440      0.70066      .   S
    C177   O440      0.70066      .   S
    C216   O441      0.65852      .   S
    C237   O441      0.65852  1_455   S
    C216   O442      0.67466      .   S
    C110   O442      0.67466      .   S
    C219   O443      0.67137  1_545   S
    C234   O443      0.67137      .   S
    C219   O444      0.67699      .   S
    C116   O444      0.67699      .   S
    C237   O445      0.67939      .   S
    C152   O445      0.67939      .   S
    C234   O446      0.67456      .   S
    C146   O446      0.67456      .   S
    C107   O447      0.70047      .   S
    C177   O447      0.70047      .   S
    C107   O448      0.54309      .   S
    C27    O448      0.54309      .   S
    C167   O449      0.70046      .   S
    C87    O449      0.70046      .   S
    C167   O450      0.54308      .   S
    C67    O450      0.54308      .   S
    C161   O451      0.70047      .   S
    C93    O451      0.70047      .   S
    C161   O452      0.54318      .   S
    C63    O452      0.54318      .   S
    C101   O453      0.70036      .   S
    C171   O453      0.70036      .   S
    C101   O454      0.54307      .   S
    C23    O454      0.54307      .   S
    C87    O455      0.73604      .   S
    C85    O455      0.73604  1_545   S
    C93    O456      0.73619      .   S
    C91    O456      0.73619      .   S
    C171   O457      0.73594      .   S
    C169   O457      0.73594      .   S
    C177   O458      0.73628      .   S
    C175   O458      0.73628  1_455   S
    C181   O459      0.70287      .   S
    C85    O459      0.70287      .   S
    C181   O460      0.70289      .   S
    C175   O460      0.70289      .   S
    C184   O461      0.70110      .   S
    C91    O461      0.70110      .   S
    C184   O462      0.70098      .   S
    C169   O462      0.70098      .   S
    C116   O463      0.54256      .   S
    C33    O463      0.54256      .   S
    C116   O464      0.70268  1_545   S
    C197   O464      0.70268      .   S
    C110   O465      0.54271      .   S
    C29    O465      0.54271      .   S
    C110   O466      0.70254      .   S
    C194   O466      0.70254      .   S
    C152   O467      0.54275      .   S
    C57    O467      0.54275      .   S
    C152   O468      0.70261  1_455   S
    C194   O468      0.70261      .   S
    C146   O469      0.54275      .   S
    C53    O469      0.54275      .   S
    C146   O470      0.70262      .   S
    C197   O470      0.70262      .   S
    C85    O471      0.70027      .   S
    C84    O471      0.70027      .   S
    C91    O472      0.70035      .   S
    C90    O472      0.70035      .   S
    C169   O473      0.70019      .   S
    C168   O473      0.70019      .   S
    C175   O474      0.70017      .   S
    C174   O474      0.70017      .   S
    C194   O475      0.73254      .   S
    C192   O475      0.73254      .   S
    C197   O476      0.73285      .   S
    C195   O476      0.73285      .   S
    C90    O477      0.54510      .   S
    C16    O477      0.54510      .   S
    C90    O478      0.70297      .   S
    C183   O478      0.70297      .   S
    C84    O479      0.54524  1_545   S
    C12    O479      0.54524      .   S
    C84    O480      0.70283      .   S
    C180   O480      0.70283      .   S
    C168   O481      0.54511      .   S
    C68    O481      0.54511      .   S
    C168   O482      0.70282      .   S
    C183   O482      0.70282      .   S
    C174   O483      0.54523  1_455   S
    C72    O483      0.54523      .   S
    C174   O484      0.70294      .   S
    C180   O484      0.70294      .   S
    C183   O485      0.73247      .   S
    C185   O485      0.73247      .   S
    C180   O486      0.73227      .   S
    C182   O486      0.73227      .   S
    C192   O487      0.70250      .   S
    C150   O487      0.70250      .   S
    C192   O488      0.70279      .   S
    C108   O488      0.70279      .   S
    C195   O489      0.70285      .   S
    C144   O489      0.70285      .   S
    C195   O490      0.70284      .   S
    C114   O490      0.70284      .   S
    C56    O491      0.54489      .   S
    C150   O491      0.54489  1_655   S
    C52    O492      0.54507      .   S
    C144   O492      0.54507      .   S
    C32    O493      0.54524      .   S
    C114   O493      0.54524  1_565   S
    C28    O494      0.54507      .   S
    C108   O494      0.54507      .   S
    C150   O495      0.70053      .   S
    C151   O495      0.70053      .   S
    C144   O496      0.69962      .   S
    C145   O496      0.69962      .   S
    C114   O497      0.70034      .   S
    C115   O497      0.70034      .   S
    C108   O498      0.70016      .   S
    C109   O498      0.70016      .   S
    C185   O499      0.70287      .   S
    C170   O499      0.70287      .   S
    C185   O500      0.70235      .   S
    C92    O500      0.70235      .   S
    C182   O501      0.70306      .   S
    C176   O501      0.70306  1_655   S
    C182   O502      0.70309      .   S
    C86    O502      0.70309  1_565   S
    C69    O503      0.54277      .   S
    C170   O503      0.54277      .   S
    C73    O504      0.54275      .   S
    C176   O504      0.54275      .   S
    C17    O505      0.54259      .   S
    C92    O505      0.54259      .   S
    C13    O506      0.54276      .   S
    C86    O506      0.54276      .   S
    C151   O507      0.70115      .   S
    C193   O507      0.70115      .   S
    C151   O508      0.73638  1_655   S
    C153   O508      0.73638      .   S
    C145   O509      0.70135      .   S
    C196   O509      0.70135      .   S
    C145   O510      0.73644      .   S
    C147   O510      0.73644      .   S
    C115   O511      0.70104      .   S
    C196   O511      0.70104      .   S
    C115   O512      0.73619  1_565   S
    C117   O512      0.73619      .   S
    C109   O513      0.70102      .   S
    C193   O513      0.70102      .   S
    C109   O514      0.73592      .   S
    C111   O514      0.73592      .   S
    C170   O515      0.67466      .   S
    C246   O515      0.67466      .   S
    C176   O516      0.67456      .   S
    C249   O516      0.67456      .   S
    C92    O517      0.67528      .   S
    C207   O517      0.67528      .   S
    C86    O518      0.67466      .   S
    C204   O518      0.67466      .   S
    C51    O519      0.54311      .   S
    C143   O519      0.54311      .   S
    C47    O520      0.54309      .   S
    C137   O520      0.54309      .   S
    C43    O521      0.54307      .   S
    C131   O521      0.54307      .   S
    C39    O522      0.54306      .   S
    C125   O522      0.54306      .   S
    C193   O523      0.54435      .   S
    C80    O523      0.54435      .   S
    C196   O524      0.54514      .   S
    C81    O524      0.54514      .   S
    C153   O525      0.70037      .   S
    C131   O525      0.70037      .   S
    C153   O526      0.70072      .   S
    C130   O526      0.70072      .   S
    C147   O527      0.70050      .   S
    C125   O527      0.70050      .   S
    C147   O528      0.70069      .   S
    C124   O528      0.70069      .   S
    C117   O529      0.70049      .   S
    C137   O529      0.70049      .   S
    C117   O530      0.70070      .   S
    C136   O530      0.70070      .   S
    C111   O531      0.70052      .   S
    C143   O531      0.70052      .   S
    C111   O532      0.70072      .   S
    C142   O532      0.70072      .   S
    C131   O533      0.67586      .   S
    C227   O533      0.67586      .   S
    C137   O534      0.67597      .   S
    C230   O534      0.67597      .   S
    C143   O535      0.67598      .   S
    C233   O535      0.67598      .   S
    C125   O536      0.67591      .   S
    C224   O536      0.67591      .   S
    C246   O537      0.68691      .   S
    C207   O537      0.68691      .   S
    C249   O538      0.68697  1_655   S
    C204   O538      0.68697  1_565   S
    C249   O539      1.00192      .   S
    C8     O539      1.00192      .   S
    C207   O540      1.00188      .   S
    C5     O540      1.00188      .   S
    C204   O541      1.00241      .   S
    C4     O541      1.00241      .   S
    C130   O542      0.54316  1_455   S
    C42    O542      0.54316      .   S
    C130   O543      0.67583      .   S
    C226   O543      0.67583      .   S
    C124   O544      0.54301      .   S
    C38    O544      0.54301      .   S
    C124   O545      0.67586      .   S
    C223   O545      0.67586      .   S
    C136   O546      0.54323  1_545   S
    C46    O546      0.54323      .   S
    C136   O547      0.67585      .   S
    C229   O547      0.67585      .   S
    C142   O548      0.54300      .   S
    C50    O548      0.54300      .   S
    C142   O549      0.67577      .   S
    C232   O549      0.67577      .   S
    C227   O550      0.68764      .   S
    C226   O550      0.68764      .   S
    C233   O551      0.68779      .   S
    C232   O551      0.68779      .   S
    C233   O552      1.00212      .   S
    C2     O552      1.00212      .   S
    C224   O553      0.68767      .   S
    C223   O553      0.68767      .   S
    C230   O554      0.68784      .   S
    C229   O554      0.68784      .   S
    C230   O555      1.00249      .   S
    C2     O555      1.00249      .   S
    C226   O556      1.00310      .   S
    C4     O556      1.00310      .   S
    C223   O557      1.00331      .   S
    C5     O557      1.00331      .   S
    C229   O558      1.00362      .   S
    C8     O558      1.00362      .   S
