# CIF file generated by openbabel 2.4.90, see http://openbabel.sf.net
data_I
_chemical_name_common ''
_cell_length_a 21.592
_cell_length_b 12.585
_cell_length_c 17.174
_cell_angle_alpha 89.958
_cell_angle_beta 95.414
_cell_angle_gamma 90.039
_space_group_name_H-M_alt 'P 1'
_space_group_name_Hall 'P 1'
loop_
    _symmetry_equiv_pos_as_xyz
    x,y,z
loop_
    _atom_site_label
    _atom_site_type_symbol
    _atom_site_fract_x
    _atom_site_fract_y
    _atom_site_fract_z
    _atom_site_occupancy
    N0      N    0.17186   0.81950   0.06583   1.000
    N1      N    0.91246   0.72709   0.91707   1.000
    N2      N    0.33683   0.22688   0.58280   1.000
    N3      N    0.42165   0.68074   0.56598   1.000
    N4      N    0.82811   0.18050   0.93413   1.000
    N5      N    0.08751   0.27291   0.08278   1.000
    N6      N    0.58701   0.27317   0.08442   1.000
    N7      N    0.66314   0.77311   0.41716   1.000
    N8      N    0.32927   0.18095   0.93222   1.000
    N9      N    0.92158   0.68014   0.56743   1.000
    N10     N    0.07840   0.31941   0.43251   1.000
    N11     N    0.16280   0.77302   0.41551   1.000
    N12     N    0.41296   0.72682   0.91552   1.000
    N13     N    0.83717   0.22697   0.58443   1.000
    N14     N    0.57832   0.31878   0.43398   1.000
    N15     N    0.67070   0.81905   0.06773   1.000
    Zr16    Zr   0.88524   0.23557   0.89972   1.000
    O17     O    0.94595   0.25250   0.95107   1.000
    O18     O    0.87235   0.23105   0.80628   1.000
    Zr19    Zr   0.86463   0.73562   0.60263   1.000
    O20     O    0.87740   0.73112   0.69582   1.000
    O21     O    0.80420   0.75269   0.55048   1.000
    Zr22    Zr   0.61367   0.76429   0.10247   1.000
    O23     O    0.62697   0.76895   0.19571   1.000
    O24     O    0.55345   0.74721   0.04989   1.000
    Zr25    Zr   0.63511   0.26416   0.39984   1.000
    O26     O    0.62218   0.26881   0.30638   1.000
    O27     O    0.69577   0.24728   0.45169   1.000
    Zr28    Zr   0.35466   0.75972   0.95696   1.000
    O29     O    0.34933   0.88490   0.95201   1.000
    O30     O    0.29971   0.76868   0.99038   1.000
    Zr31    Zr   0.10413   0.74053   0.45700   1.000
    O32     O    0.04928   0.73141   0.49095   1.000
    O33     O    0.09871   0.61536   0.45211   1.000
    Zr34    Zr   0.14622   0.24055   0.04025   1.000
    O35     O    0.20123   0.23166   0.00709   1.000
    O36     O    0.15162   0.11541   0.04550   1.000
    Zr37    Zr   0.60528   0.74017   0.45962   1.000
    O38     O    0.55010   0.73137   0.49225   1.000
    O39     O    0.59945   0.61494   0.45441   1.000
    Zr40    Zr   0.39469   0.25983   0.54035   1.000
    O41     O    0.40052   0.38494   0.54556   1.000
    O42     O    0.44987   0.26851   0.50772   1.000
    Zr43    Zr   0.11473   0.76443   0.10024   1.000
    O44     O    0.05402   0.74749   0.04886   1.000
    O45     O    0.12762   0.76894   0.19368   1.000
    Zr46    Zr   0.13534   0.26437   0.39733   1.000
    O47     O    0.19578   0.24731   0.44947   1.000
    O48     O    0.12257   0.26888   0.30412   1.000
    Zr49    Zr   0.85375   0.75945   0.95972   1.000
    O50     O    0.79874   0.76834   0.99288   1.000
    O51     O    0.84835   0.88459   0.95447   1.000
    Zr52    Zr   0.64531   0.24028   0.04302   1.000
    O53     O    0.70026   0.23131   0.00960   1.000
    O54     O    0.65064   0.11510   0.04796   1.000
    Zr55    Zr   0.36486   0.73584   0.60013   1.000
    O56     O    0.37779   0.73119   0.69358   1.000
    O57     O    0.30420   0.75272   0.54827   1.000
    Zr58    Zr   0.38630   0.23570   0.89749   1.000
    O59     O    0.44652   0.25278   0.95007   1.000
    O60     O    0.37299   0.23105   0.80425   1.000
    Zr61    Zr   0.89584   0.25947   0.54266   1.000
    O62     O    0.90126   0.38452   0.54766   1.000
    O63     O    0.95069   0.26848   0.50882   1.000
    O64     O    0.61545   0.28303   0.41381   1.000
    O65     O    0.86548   0.21654   0.91379   1.000
    O66     O    0.37514   0.74514   0.94229   1.000
    O67     O    0.88433   0.71648   0.58830   1.000
    O68     O    0.12472   0.75498   0.44236   1.000
    O69     O    0.12563   0.25498   0.05524   1.000
    O70     O    0.62561   0.75476   0.44464   1.000
    O71     O    0.37436   0.24524   0.55533   1.000
    O72     O    0.13449   0.78346   0.08617   1.000
    O73     O    0.11564   0.28341   0.41165   1.000
    O74     O    0.87434   0.74502   0.94454   1.000
    O75     O    0.62483   0.25485   0.05764   1.000
    O76     O    0.38452   0.71685   0.58615   1.000
    O77     O    0.63341   0.78322   0.08829   1.000
    O78     O    0.36656   0.21677   0.91167   1.000
    O79     O    0.87525   0.24501   0.55741   1.000
loop_
    _geom_bond_atom_site_label_1
    _geom_bond_atom_site_label_2
    _geom_bond_distance
    _geom_bond_site_symmetry_2
    _ccdc_geom_bond_type
    Zr16   O17       1.52432      .   S
    N5     O17       3.63588  1_454   S
    Zr16   O18       1.60367      .   S
    N13    O18       3.81439      .   S
    Zr19   O20       1.59910      .   S
    N1     O20       3.80403      .   S
    Zr19   O21       1.52653      .   S
    N7     O21       3.64278      .   S
    Zr22   O23       1.60100      .   S
    N7     O23       3.81006      .   S
    Zr22   O24       1.52669      .   S
    N12    O24       3.64301  1_556   S
    Zr25   O26       1.60403      .   S
    N6     O26       3.81634      .   S
    Zr25   O27       1.52761      .   S
    N13    O27       3.64298      .   S
    Zr28   O29       1.58134      .   S
    N8     O29       3.76258  1_545   S
    Zr28   O30       1.37061      .   S
    N0     O30       3.22296  1_554   S
    Zr31   O32       1.37319      .   S
    N9     O32       3.22875  1_655   S
    Zr31   O33       1.58114      .   S
    N10    O33       3.76169      .   S
    Zr34   O35       1.36949      .   S
    N8     O35       3.22141  1_556   S
    Zr34   O36       1.58117      .   S
    N0     O36       3.76205  1_565   S
    Zr37   O38       1.36812      .   S
    N3     O38       3.21874      .   S
    Zr37   O39       1.58290      .   S
    N14    O39       3.76723      .   S
    Zr40   O41       1.58141      .   S
    N3     O41       3.76278      .   S
    Zr40   O42       1.36801      .   S
    N14    O42       3.21789      .   S
    Zr43   O44       1.52456      .   S
    N1     O44       3.63668  1_656   S
    Zr43   O45       1.60360      .   S
    N11    O45       3.81426      .   S
    Zr46   O47       1.52651      .   S
    N2     O47       3.64272      .   S
    Zr46   O48       1.59956      .   S
    N5     O48       3.80549      .   S
    Zr49   O50       1.36946      .   S
    N15    O50       3.22133  1_554   S
    Zr49   O51       1.58118      .   S
    N4     O51       3.76206  1_545   S
    Zr52   O53       1.37068      .   S
    N4     O53       3.22309  1_556   S
    Zr52   O54       1.58133      .   S
    N15    O54       3.76254  1_565   S
    Zr55   O56       1.60388      .   S
    N12    O56       3.81591      .   S
    Zr55   O57       1.52766      .   S
    N11    O57       3.64310      .   S
    Zr58   O59       1.52662      .   S
    N6     O59       3.64280  1_554   S
    Zr58   O60       1.60105      .   S
    N2     O60       3.81011      .   S
    Zr61   O62       1.57983      .   S
    N9     O62       3.75777      .   S
    Zr61   O63       1.37212      .   S
    N10    O63       3.22642  1_455   S
    Zr25   O64       0.56000      .   S
    N14    O64       1.00916      .   S
    Zr16   O65       0.56300      .   S
    N4     O65       1.01553      .   S
    Zr28   O66       0.56022      .   S
    N12    O66       1.00131      .   S
    Zr19   O67       0.56534      .   S
    N9     O67       1.01945      .   S
    Zr31   O68       0.56115      .   S
    N11    O68       1.00560      .   S
    Zr34   O69       0.56465      .   S
    N5     O69       1.01286      .   S
    Zr37   O70       0.56012      .   S
    N7     O70       1.00223      .   S
    Zr40   O71       0.56008      .   S
    N2     O71       1.00214      .   S
    Zr43   O72       0.56300      .   S
    N0     O72       1.01554      .   S
    Zr46   O73       0.56473      .   S
    N10    O73       1.01754      .   S
    Zr49   O74       0.56632      .   S
    N1     O74       1.01227      .   S
    Zr52   O75       0.55976      .   S
    N6     O75       1.00143      .   S
    Zr55   O76       0.56065      .   S
    N3     O76       1.01120      .   S
    Zr22   O77       0.56311      .   S
    N15    O77       1.01458      .   S
    Zr58   O78       0.56308      .   S
    N8     O78       1.01451      .   S
    Zr61   O79       0.56213      .   S
    N13    O79       1.00724      .   S
