# CIF file generated by openbabel 2.4.90, see http://openbabel.sf.net
data_I
_chemical_name_common ''
_cell_length_a 21.592
_cell_length_b 12.585
_cell_length_c 17.174
_cell_angle_alpha 89.958
_cell_angle_beta 95.414
_cell_angle_gamma 90.039
_space_group_name_H-M_alt 'P 1'
_space_group_name_Hall 'P 1'
loop_
    _symmetry_equiv_pos_as_xyz
    x,y,z
loop_
    _atom_site_label
    _atom_site_type_symbol
    _atom_site_fract_x
    _atom_site_fract_y
    _atom_site_fract_z
    _atom_site_occupancy
    Zr0     Zr   0.13534   0.26437   0.39733   1.000
    Zr1     Zr   0.63511   0.26416   0.39984   1.000
    Zr2     Zr   0.39469   0.25983   0.54035   1.000
    Zr3     Zr   0.89584   0.25947   0.54266   1.000
    Zr4     Zr   0.11473   0.76443   0.10024   1.000
    Zr5     Zr   0.61367   0.76429   0.10247   1.000
    Zr6     Zr   0.35466   0.75972   0.95696   1.000
    Zr7     Zr   0.85375   0.75945   0.95972   1.000
    Zr8     Zr   0.36486   0.73584   0.60013   1.000
    Zr9     Zr   0.86463   0.73562   0.60263   1.000
    Zr10    Zr   0.10413   0.74053   0.45700   1.000
    Zr11    Zr   0.60528   0.74017   0.45962   1.000
    Zr12    Zr   0.38630   0.23570   0.89749   1.000
    Zr13    Zr   0.88524   0.23557   0.89972   1.000
    Zr14    Zr   0.14622   0.24055   0.04025   1.000
    Zr15    Zr   0.64531   0.24028   0.04302   1.000
    N16     N    0.17186   0.81950   0.06583   1.000
    O17     O    0.14563   0.82828   0.07043   1.000
    O18     O    0.24476   0.77765   0.02379   1.000
    O19     O    0.15702   0.99027   0.05074   1.000
    O20     O    0.16286   0.77669   0.07376   1.000
    N21     N    0.91246   0.72709   0.91707   1.000
    O22     O    0.89018   0.72661   0.78900   1.000
    O23     O    0.90375   0.72815   0.94846   1.000
    O24     O    0.99331   0.73056   0.99748   1.000
    O25     O    0.88613   0.73304   0.91027   1.000
    N26     N    0.33683   0.22688   0.58280   1.000
    O27     O    0.25621   0.23024   0.50162   1.000
    O28     O    0.35969   0.22639   0.71101   1.000
    O29     O    0.36281   0.23320   0.58970   1.000
    O30     O    0.34525   0.22808   0.55091   1.000
    N31     N    0.42165   0.68074   0.56598   1.000
    O32     O    0.49491   0.72257   0.52487   1.000
    O33     O    0.41277   0.72369   0.57385   1.000
    O34     O    0.39558   0.67202   0.57051   1.000
    O35     O    0.40635   0.51006   0.55076   1.000
    N36     N    0.82811   0.18050   0.93413   1.000
    O37     O    0.84295   0.00973   0.94922   1.000
    O38     O    0.75521   0.22235   0.97617   1.000
    O39     O    0.83711   0.22331   0.92620   1.000
    O40     O    0.85434   0.17171   0.92953   1.000
    N41     N    0.08751   0.27291   0.08278   1.000
    O42     O    0.11384   0.26696   0.08964   1.000
    O43     O    0.10979   0.27338   0.21090   1.000
    O44     O    0.00667   0.26943   0.00243   1.000
    O45     O    0.09622   0.27185   0.05083   1.000
    N46     N    0.58701   0.27317   0.08442   1.000
    O47     O    0.60926   0.27345   0.21292   1.000
    O48     O    0.50674   0.26985   0.00264   1.000
    O49     O    0.61305   0.26688   0.09172   1.000
    O50     O    0.59565   0.27197   0.05279   1.000
    N51     N    0.66314   0.77311   0.41716   1.000
    O52     O    0.63716   0.76679   0.41026   1.000
    O53     O    0.64028   0.77360   0.28894   1.000
    O54     O    0.74377   0.76975   0.49834   1.000
    O55     O    0.65472   0.77191   0.44905   1.000
    N56     N    0.32927   0.18095   0.93222   1.000
    O57     O    0.25624   0.22277   0.97392   1.000
    O58     O    0.34399   0.01008   0.94706   1.000
    O59     O    0.33820   0.22363   0.92414   1.000
    O60     O    0.35545   0.17204   0.92755   1.000
    N61     N    0.92158   0.68014   0.56743   1.000
    O62     O    0.91270   0.72309   0.57562   1.000
    O63     O    0.89538   0.67157   0.57233   1.000
    O64     O    0.90668   0.50957   0.55265   1.000
    O65     O    0.99443   0.72229   0.52490   1.000
    N66     N    0.07840   0.31941   0.43251   1.000
    O67     O    0.09329   0.49020   0.44722   1.000
    O68     O    0.00554   0.27748   0.47498   1.000
    O69     O    0.10460   0.32820   0.42762   1.000
    O70     O    0.08727   0.27668   0.42433   1.000
    N71     N    0.16280   0.77302   0.41551   1.000
    O72     O    0.24354   0.76960   0.49641   1.000
    O73     O    0.14050   0.77346   0.28711   1.000
    O74     O    0.13652   0.76703   0.40830   1.000
    O75     O    0.15411   0.77186   0.44716   1.000
    N76     N    0.41296   0.72682   0.91552   1.000
    O77     O    0.39071   0.72654   0.78703   1.000
    O78     O    0.40432   0.72802   0.94700   1.000
    O79     O    0.38692   0.73311   0.90823   1.000
    O80     O    0.49323   0.73014   0.99730   1.000
    N81     N    0.83717   0.22697   0.58443   1.000
    O82     O    0.84586   0.22814   0.55272   1.000
    O83     O    0.86345   0.23297   0.59158   1.000
    O84     O    0.85947   0.22654   0.71284   1.000
    O85     O    0.75643   0.23040   0.50355   1.000
    N86     N    0.57832   0.31878   0.43398   1.000
    O87     O    0.59362   0.48970   0.44920   1.000
    O88     O    0.58720   0.27606   0.42611   1.000
    O89     O    0.60439   0.32774   0.42946   1.000
    O90     O    0.50506   0.27719   0.47509   1.000
    N91     N    0.67070   0.81905   0.06773   1.000
    O92     O    0.64452   0.82795   0.07240   1.000
    O93     O    0.74373   0.77723   0.02604   1.000
    O94     O    0.65598   0.98991   0.05290   1.000
    O95     O    0.66177   0.77636   0.07581   1.000
loop_
    _geom_bond_atom_site_label_1
    _geom_bond_atom_site_label_2
    _geom_bond_distance
    _geom_bond_site_symmetry_2
    _ccdc_geom_bond_type
    N16    O17       0.58967      .   S
    Zr4    O17       1.19002      .   S
    N16    O18       1.86881      .   S
    Zr6    O18       2.74122  1_556   S
    N16    O19       2.18474      .   S
    Zr14   O19       3.16234  1_545   S
    N16    O20       0.59271      .   S
    Zr4    O20       1.18295      .   S
    N21    O22       2.20659      .   S
    Zr9    O22       3.19821      .   S
    N21    O23       0.58776      .   S
    Zr7    O23       1.18248      .   S
    N21    O24       2.12156      .   S
    Zr4    O24       3.04912  1_454   S
    N21    O25       0.57452      .   S
    Zr7    O25       1.19725      .   S
    N26    O27       2.12561      .   S
    Zr0    O27       3.05302      .   S
    N26    O28       2.21070      .   S
    Zr12   O28       3.20209      .   S
    N26    O29       0.56777      .   S
    Zr2    O29       1.18905      .   S
    N26    O30       0.59334      .   S
    Zr2    O30       1.16950      .   S
    N31    O32       1.86729      .   S
    Zr11   O32       2.73625      .   S
    N31    O33       0.59360      .   S
    Zr8    O33       1.17716      .   S
    N31    O34       0.58582      .   S
    Zr8    O34       1.18694      .   S
    N31    O35       2.18523      .   S
    Zr2    O35       3.16282      .   S
    N36    O37       2.18475      .   S
    Zr7    O37       3.16235  1_565   S
    N36    O38       1.86887      .   S
    Zr15   O38       2.74136  1_554   S
    N36    O39       0.59270      .   S
    Zr13   O39       1.18293      .   S
    N36    O40       0.58966      .   S
    Zr13   O40       1.19001      .   S
    N41    O42       0.57465      .   S
    Zr14   O42       1.19646      .   S
    N41    O43       2.20758      .   S
    Zr0    O43       3.19913      .   S
    N41    O44       2.12099      .   S
    Zr13   O44       3.04864  1_656   S
    N41    O45       0.59673      .   S
    Zr14   O45       1.17966      .   S
    N46    O47       2.21387      .   S
    Zr1    O47       3.20806      .   S
    N46    O48       2.12562      .   S
    Zr12   O48       3.05325  1_556   S
    N46    O49       0.56995      .   S
    Zr15   O49       1.18642      .   S
    N46    O50       0.59096      .   S
    Zr15   O50       1.17109      .   S
    N51    O52       0.56777      .   S
    Zr11   O52       1.18916      .   S
    N51    O53       2.21069      .   S
    Zr5    O53       3.20200      .   S
    N51    O54       2.12566      .   S
    Zr9    O54       3.05305      .   S
    N51    O55       0.59342      .   S
    Zr11   O55       1.16955      .   S
    N56    O57       1.86845      .   S
    Zr14   O57       2.73897  1_554   S
    N56    O58       2.18514      .   S
    Zr6    O58       3.16268  1_565   S
    N56    O59       0.59147      .   S
    Zr12   O59       1.18347      .   S
    N56    O60       0.58926      .   S
    Zr12   O60       1.18988      .   S
    N61    O62       0.59491      .   S
    Zr9    O62       1.18686      .   S
    N61    O63       0.58961      .   S
    Zr9    O63       1.19492      .   S
    N61    O64       2.18185      .   S
    Zr3    O64       3.15966      .   S
    N61    O65       1.87213      .   S
    Zr10   O65       2.74638  1_455   S
    N66    O67       2.18448      .   S
    Zr10   O67       3.16228      .   S
    N66    O68       1.87078      .   S
    Zr3    O68       2.74425  1_655   S
    N66    O69       0.59011      .   S
    Zr0    O69       1.19302      .   S
    N66    O70       0.59237      .   S
    Zr0    O70       1.18646      .   S
    N71    O72       2.12478      .   S
    Zr8    O72       3.05532      .   S
    N71    O73       2.21225      .   S
    Zr4    O73       3.20720      .   S
    N71    O74       0.57420      .   S
    Zr10   O74       1.18726      .   S
    N71    O75       0.59158      .   S
    Zr10   O75       1.17573      .   S
    N76    O77       2.21358      .   S
    Zr8    O77       3.20777      .   S
    N76    O78       0.58857      .   S
    Zr6    O78       1.17180      .   S
    N76    O79       0.56990      .   S
    Zr6    O79       1.18670      .   S
    N76    O80       2.12577      .   S
    Zr5    O80       3.05337  1_554   S
    N81    O82       0.59270      .   S
    Zr3    O82       1.17659      .   S
    N81    O83       0.57407      .   S
    Zr3    O83       1.19010      .   S
    N81    O84       2.21232      .   S
    Zr13   O84       3.20734      .   S
    N81    O85       2.12470      .   S
    Zr1    O85       3.05523      .   S
    N86    O87       2.18817      .   S
    Zr11   O87       3.16581      .   S
    N86    O88       0.59089      .   S
    Zr1    O88       1.17673      .   S
    N86    O89       0.58637      .   S
    Zr1    O89       1.18490      .   S
    N86    O90       1.86648      .   S
    Zr2    O90       2.73601      .   S
    N91    O92       0.58928      .   S
    Zr5    O92       1.18994      .   S
    N91    O93       1.86840      .   S
    Zr7    O93       2.73893  1_556   S
    N91    O94       2.18512      .   S
    Zr15   O94       3.16267  1_545   S
    N91    O95       0.59150      .   S
    Zr5    O95       1.18352      .   S
