# CIF file generated by openbabel 2.4.90, see http://openbabel.sf.net
data_I
_chemical_name_common ''
_cell_length_a 21.592
_cell_length_b 12.585
_cell_length_c 17.174
_cell_angle_alpha 89.958
_cell_angle_beta 95.414
_cell_angle_gamma 90.039
_space_group_name_H-M_alt 'P 1'
_space_group_name_Hall 'P 1'
loop_
    _symmetry_equiv_pos_as_xyz
    x,y,z
loop_
    _atom_site_label
    _atom_site_type_symbol
    _atom_site_fract_x
    _atom_site_fract_y
    _atom_site_fract_z
    _atom_site_occupancy
    N0      N    0.17186   0.81950   0.06583   1.000
    N1      N    0.91246   0.72709   0.91707   1.000
    N2      N    0.33683   0.22688   0.58280   1.000
    N3      N    0.42165   0.68074   0.56598   1.000
    N4      N    0.82811   0.18050   0.93413   1.000
    N5      N    0.08751   0.27291   0.08278   1.000
    N6      N    0.58701   0.27317   0.08442   1.000
    N7      N    0.66314   0.77311   0.41716   1.000
    N8      N    0.32927   0.18095   0.93222   1.000
    N9      N    0.92158   0.68014   0.56743   1.000
    N10     N    0.07840   0.31941   0.43251   1.000
    N11     N    0.16280   0.77302   0.41551   1.000
    N12     N    0.41296   0.72682   0.91552   1.000
    N13     N    0.83717   0.22697   0.58443   1.000
    N14     N    0.57832   0.31878   0.43398   1.000
    N15     N    0.67070   0.81905   0.06773   1.000
    Zr16    Zr   0.88524   0.23557   0.89972   1.000
    O17     O    0.94595   0.25250   0.95107   1.000
    O18     O    0.86117   0.22944   0.91296   1.000
    O19     O    0.86979   0.20364   0.91462   1.000
    O20     O    0.87235   0.23105   0.80628   1.000
    Zr21    Zr   0.86463   0.73562   0.60263   1.000
    O22     O    0.87740   0.73112   0.69582   1.000
    O23     O    0.80420   0.75269   0.55048   1.000
    O24     O    0.88866   0.72936   0.58913   1.000
    O25     O    0.88000   0.70360   0.58748   1.000
    Zr26    Zr   0.61367   0.76429   0.10247   1.000
    O27     O    0.62697   0.76895   0.19571   1.000
    O28     O    0.55345   0.74721   0.04989   1.000
    O29     O    0.63772   0.77033   0.08914   1.000
    O30     O    0.62909   0.79612   0.08744   1.000
    Zr31    Zr   0.63511   0.26416   0.39984   1.000
    O32     O    0.62218   0.26881   0.30638   1.000
    O33     O    0.69577   0.24728   0.45169   1.000
    O34     O    0.61115   0.27011   0.41298   1.000
    O35     O    0.61975   0.29595   0.41465   1.000
    Zr36    Zr   0.35466   0.75972   0.95696   1.000
    O37     O    0.37949   0.74387   0.95198   1.000
    O38     O    0.37079   0.74642   0.93260   1.000
    O39     O    0.34933   0.88490   0.95201   1.000
    O40     O    0.29971   0.76868   0.99038   1.000
    Zr41    Zr   0.10413   0.74053   0.45700   1.000
    O42     O    0.04928   0.73141   0.49095   1.000
    O43     O    0.09871   0.61536   0.45211   1.000
    O44     O    0.12912   0.75619   0.45208   1.000
    O45     O    0.12032   0.75378   0.43265   1.000
    Zr46    Zr   0.14622   0.24055   0.04025   1.000
    O47     O    0.13003   0.25376   0.06495   1.000
    O48     O    0.12122   0.25620   0.04554   1.000
    O49     O    0.20123   0.23166   0.00709   1.000
    O50     O    0.15162   0.11541   0.04550   1.000
    Zr51    Zr   0.60528   0.74017   0.45962   1.000
    O52     O    0.62122   0.75348   0.43494   1.000
    O53     O    0.55010   0.73137   0.49225   1.000
    O54     O    0.63000   0.75604   0.45434   1.000
    O55     O    0.59945   0.61494   0.45441   1.000
    Zr56    Zr   0.39469   0.25983   0.54035   1.000
    O57     O    0.37875   0.24651   0.56502   1.000
    O58     O    0.36997   0.24396   0.54563   1.000
    O59     O    0.40052   0.38494   0.54556   1.000
    O60     O    0.44987   0.26851   0.50772   1.000
    Zr61    Zr   0.11473   0.76443   0.10024   1.000
    O62     O    0.05402   0.74749   0.04886   1.000
    O63     O    0.12762   0.76894   0.19368   1.000
    O64     O    0.13018   0.79635   0.08534   1.000
    O65     O    0.13880   0.77056   0.08700   1.000
    Zr66    Zr   0.13534   0.26437   0.39733   1.000
    O67     O    0.19578   0.24731   0.44947   1.000
    O68     O    0.12257   0.26888   0.30412   1.000
    O69     O    0.11131   0.27053   0.41083   1.000
    O70     O    0.11997   0.29629   0.41248   1.000
    Zr71    Zr   0.85375   0.75945   0.95972   1.000
    O72     O    0.79874   0.76834   0.99288   1.000
    O73     O    0.84835   0.88459   0.95447   1.000
    O74     O    0.87875   0.74380   0.95409   1.000
    O75     O    0.86994   0.74624   0.93499   1.000
    Zr76    Zr   0.64531   0.24028   0.04302   1.000
    O77     O    0.62048   0.25612   0.04791   1.000
    O78     O    0.62918   0.25358   0.06737   1.000
    O79     O    0.70026   0.23131   0.00960   1.000
    O80     O    0.65064   0.11510   0.04796   1.000
    Zr81    Zr   0.36486   0.73584   0.60013   1.000
    O82     O    0.38882   0.72977   0.58699   1.000
    O83     O    0.37779   0.73119   0.69358   1.000
    O84     O    0.38022   0.70393   0.58532   1.000
    O85     O    0.30420   0.75272   0.54827   1.000
    Zr86    Zr   0.38630   0.23570   0.89749   1.000
    O87     O    0.44652   0.25278   0.95007   1.000
    O88     O    0.37299   0.23105   0.80425   1.000
    O89     O    0.37088   0.20387   0.91252   1.000
    O90     O    0.36225   0.22967   0.91082   1.000
    Zr91    Zr   0.89584   0.25947   0.54266   1.000
    O92     O    0.90126   0.38452   0.54766   1.000
    O93     O    0.95069   0.26848   0.50882   1.000
    O94     O    0.87085   0.24380   0.54769   1.000
    O95     O    0.87965   0.24622   0.56712   1.000
loop_
    _geom_bond_atom_site_label_1
    _geom_bond_atom_site_label_2
    _geom_bond_distance
    _geom_bond_site_symmetry_2
    _ccdc_geom_bond_type
    Zr16   O17       1.52432      .   S
    N5     O17       3.63588  1_454   S
    Zr16   O18       0.59147      .   S
    N4     O18       1.03405      .   S
    Zr16   O19       0.59500      .   S
    N4     O19       1.03115      .   S
    Zr16   O20       1.60367      .   S
    N13    O20       3.81439      .   S
    Zr21   O22       1.59910      .   S
    N1     O22       3.80403      .   S
    Zr21   O23       1.52653      .   S
    N7     O23       3.64278      .   S
    Zr21   O24       0.59343      .   S
    N9     O24       1.03837      .   S
    Zr21   O25       0.59746      .   S
    N9     O25       1.03453      .   S
    Zr26   O27       1.60100      .   S
    N7     O27       3.81006      .   S
    Zr26   O28       1.52669      .   S
    N12    O28       3.64301  1_556   S
    Zr26   O29       0.59176      .   S
    N15    O29       1.03292      .   S
    Zr26   O30       0.59497      .   S
    N15    O30       1.03044      .   S
    Zr31   O32       1.60403      .   S
    N6     O32       3.81634      .   S
    Zr31   O33       1.52761      .   S
    N13    O33       3.64298      .   S
    Zr31   O34       0.58836      .   S
    N14    O34       1.02817      .   S
    Zr31   O35       0.59245      .   S
    N14    O35       1.02452      .   S
    Zr36   O37       0.58590      .   S
    N12    O37       1.02286      .   S
    Zr36   O38       0.59335      .   S
    N12    O38       1.01323      .   S
    Zr36   O39       1.58134      .   S
    N8     O39       3.76258  1_545   S
    Zr36   O40       1.37061      .   S
    N0     O40       3.22296  1_554   S
    Zr41   O42       1.37319      .   S
    N9     O42       3.22875  1_655   S
    Zr41   O43       1.58114      .   S
    N10    O43       3.76169      .   S
    Zr41   O44       0.58786      .   S
    N11    O44       1.02654      .   S
    Zr41   O45       0.59363      .   S
    N11    O45       1.01826      .   S
    Zr46   O47       0.59823      .   S
    N5     O47       1.02396      .   S
    Zr46   O48       0.58983      .   S
    N5     O48       1.03509      .   S
    Zr46   O49       1.36949      .   S
    N8     O49       3.22141  1_556   S
    Zr46   O50       1.58117      .   S
    N0     O50       3.76205  1_565   S
    Zr51   O52       0.59458      .   S
    N7     O52       1.01254      .   S
    Zr51   O53       1.36812      .   S
    N3     O53       3.21874      .   S
    Zr51   O54       0.58477      .   S
    N7     O54       1.02553      .   S
    Zr51   O55       1.58290      .   S
    N14    O55       3.76723      .   S
    Zr56   O57       0.59452      .   S
    N2     O57       1.01247      .   S
    Zr56   O58       0.58475      .   S
    N2     O58       1.02541      .   S
    Zr56   O59       1.58141      .   S
    N3     O59       3.76278      .   S
    Zr56   O60       1.36801      .   S
    N14    O60       3.21789      .   S
    Zr61   O62       1.52456      .   S
    N1     O62       3.63668  1_656   S
    Zr61   O63       1.60360      .   S
    N11    O63       3.81426      .   S
    Zr61   O64       0.59501      .   S
    N0     O64       1.03116      .   S
    Zr61   O65       0.59148      .   S
    N0     O65       1.03406      .   S
    Zr66   O67       1.52651      .   S
    N2     O67       3.64272      .   S
    Zr66   O68       1.59956      .   S
    N5     O68       3.80549      .   S
    Zr66   O69       0.59323      .   S
    N10    O69       1.03583      .   S
    Zr66   O70       0.59651      .   S
    N10    O70       1.03330      .   S
    Zr71   O72       1.36946      .   S
    N15    O72       3.22133  1_554   S
    Zr71   O73       1.58118      .   S
    N4     O73       3.76206  1_545   S
    Zr71   O74       0.59124      .   S
    N1     O74       1.03256      .   S
    Zr71   O75       0.59862      .   S
    N1     O75       1.02455      .   S
    Zr76   O77       0.58554      .   S
    N6     O77       1.02349      .   S
    Zr76   O78       0.59321      .   S
    N6     O78       1.01306      .   S
    Zr76   O79       1.37068      .   S
    N4     O79       3.22309  1_556   S
    Zr76   O80       1.58133      .   S
    N15    O80       3.76254  1_565   S
    Zr81   O82       0.58858      .   S
    N3     O82       1.03087      .   S
    Zr81   O83       1.60388      .   S
    N12    O83       3.81591      .   S
    Zr81   O84       0.59347      .   S
    N3     O84       1.02583      .   S
    Zr81   O85       1.52766      .   S
    N11    O85       3.64310      .   S
    Zr86   O87       1.52662      .   S
    N6     O87       3.64280  1_554   S
    Zr86   O88       1.60105      .   S
    N2     O88       3.81011      .   S
    Zr86   O89       0.59494      .   S
    N8     O89       1.03038      .   S
    Zr86   O90       0.59174      .   S
    N8     O90       1.03285      .   S
    Zr91   O92       1.57983      .   S
    N9     O92       3.75777      .   S
    Zr91   O93       1.37212      .   S
    N10    O93       3.22642  1_455   S
    Zr91   O94       0.58829      .   S
    N13    O94       1.02862      .   S
    Zr91   O95       0.59505      .   S
    N13    O95       1.01940      .   S
