# CIF file generated by openbabel 2.4.90, see http://openbabel.sf.net
data_I
_chemical_name_common ''
_cell_length_a 12.489
_cell_length_b 15.682
_cell_length_c 15.687
_cell_angle_alpha 120.01
_cell_angle_beta 90.011
_cell_angle_gamma 89.908
_space_group_name_H-M_alt 'P 1'
_space_group_name_Hall 'P 1'
loop_
    _symmetry_equiv_pos_as_xyz
    x,y,z
loop_
    _atom_site_label
    _atom_site_type_symbol
    _atom_site_fract_x
    _atom_site_fract_y
    _atom_site_fract_z
    _atom_site_occupancy
    H0      H    0.09399   0.72518   0.60384   1.000
    H1      H    0.59398   0.72518   0.60382   1.000
    H2      H    0.20953   0.58908   0.59240   1.000
    H3      H    0.70952   0.58908   0.59240   1.000
    H4      H    0.45492   0.66065   0.46004   1.000
    H5      H    0.95491   0.66065   0.46004   1.000
    H6      H    0.35086   0.80176   0.47127   1.000
    H7      H    0.85085   0.80175   0.47126   1.000
    H8      H    0.26074   0.87905   0.27481   1.000
    H9      H    0.76073   0.87906   0.27481   1.000
    H10     H    0.37627   0.00000   0.41054   1.000
    H11     H    0.87626   0.00000   0.41054   1.000
    H12     H    0.12151   0.79880   0.33882   1.000
    H13     H    0.62150   0.79880   0.33882   1.000
    H14     H    0.01742   0.66908   0.19811   1.000
    H15     H    0.51741   0.66907   0.19811   1.000
    H16     H    0.42700   0.39616   0.12123   1.000
    H17     H    0.92699   0.39616   0.12123   1.000
    H18     H    0.04227   0.40794   0.99687   1.000
    H19     H    0.54226   0.40795   0.99687   1.000
    H20     H    0.28761   0.53985   0.20098   1.000
    H21     H    0.78761   0.53985   0.20098   1.000
    H22     H    0.18380   0.52828   0.33054   1.000
    H23     H    0.68379   0.52827   0.33054   1.000
    H24     H    0.09420   0.27481   0.39587   1.000
    H25     H    0.59419   0.27482   0.39588   1.000
    H26     H    0.20976   0.41059   0.40731   1.000
    H27     H    0.70975   0.41058   0.40731   1.000
    H28     H    0.45460   0.33881   0.54035   1.000
    H29     H    0.95459   0.33881   0.54035   1.000
    H30     H    0.35051   0.19800   0.52913   1.000
    H31     H    0.85050   0.19801   0.52915   1.000
    H32     H    0.26083   0.12142   0.72526   1.000
    H33     H    0.76082   0.12142   0.72526   1.000
    H34     H    0.37635   0.99682   0.58916   1.000
    H35     H    0.87634   0.99682   0.58916   1.000
    H36     H    0.12143   0.20095   0.66088   1.000
    H37     H    0.62142   0.20095   0.66080   1.000
    H38     H    0.01739   0.33075   0.80199   1.000
    H39     H    0.51738   0.33075   0.80198   1.000
    H40     H    0.42668   0.60393   0.87882   1.000
    H41     H    0.92667   0.60393   0.87882   1.000
    H42     H    0.04194   0.59252   0.00000   1.000
    H43     H    0.54193   0.59252   0.00000   1.000
    H44     H    0.28804   0.46067   0.79970   1.000
    H45     H    0.78803   0.46067   0.79970   1.000
    H46     H    0.18419   0.47181   0.66985   1.000
    H47     H    0.68419   0.47181   0.66985   1.000
    C48     C    0.14407   0.85317   0.53873   1.000
    C49     C    0.64406   0.85316   0.53872   1.000
    C50     C    0.21309   0.77307   0.53691   1.000
    C51     C    0.71308   0.77306   0.53600   1.000
    C52     C    0.17384   0.71274   0.57193   1.000
    C53     C    0.67383   0.71274   0.57190   1.000
    C54     C    0.23748   0.63696   0.56530   1.000
    C55     C    0.73747   0.63695   0.56530   1.000
    C56     C    0.37470   0.67728   0.49137   1.000
    C57     C    0.87469   0.67727   0.49136   1.000
    C58     C    0.31629   0.75523   0.49713   1.000
    C59     C    0.81629   0.75523   0.49713   1.000
    C60     C    0.31072   0.68567   0.14697   1.000
    C61     C    0.81072   0.68567   0.14697   1.000
    C62     C    0.37973   0.76382   0.22687   1.000
    C63     C    0.87973   0.76383   0.22687   1.000
    C64     C    0.34055   0.85935   0.28713   1.000
    C65     C    0.84054   0.85935   0.28713   1.000
    C66     C    0.40419   0.92845   0.36272   1.000
    C67     C    0.90418   0.92845   0.36272   1.000
    C68     C    0.04132   0.81372   0.32233   1.000
    C69     C    0.54131   0.81371   0.32233   1.000
    C70     C    0.48289   0.74162   0.24458   1.000
    C71     C    0.98288   0.74162   0.24458   1.000
    C72     C    0.47723   0.46083   0.31429   1.000
    C73     C    0.97723   0.46083   0.31429   1.000
    C74     C    0.04609   0.46282   0.23610   1.000
    C75     C    0.54609   0.46281   0.23612   1.000
    C76     C    0.00679   0.42804   0.14082   1.000
    C77     C    0.50678   0.42804   0.14082   1.000
    C78     C    0.07031   0.43481   0.07176   1.000
    C79     C    0.57030   0.43480   0.07176   1.000
    C80     C    0.20748   0.50854   0.18616   1.000
    C81     C    0.70747   0.50853   0.18610   1.000
    C82     C    0.14919   0.50258   0.25818   1.000
    C83     C    0.64919   0.50258   0.25818   1.000
    C84     C    0.14408   0.14677   0.46115   1.000
    C85     C    0.64407   0.14678   0.46116   1.000
    C86     C    0.21304   0.22679   0.46310   1.000
    C87     C    0.71302   0.22680   0.46311   1.000
    C88     C    0.17393   0.28712   0.42793   1.000
    C89     C    0.67392   0.28712   0.42793   1.000
    C90     C    0.23758   0.36273   0.43452   1.000
    C91     C    0.73758   0.36274   0.43450   1.000
    C92     C    0.37450   0.32231   0.50888   1.000
    C93     C    0.87448   0.32231   0.50889   1.000
    C94     C    0.31607   0.24453   0.50312   1.000
    C95     C    0.81606   0.24452   0.50312   1.000
    C96     C    0.31069   0.31454   0.85332   1.000
    C97     C    0.81069   0.31454   0.85332   1.000
    C98     C    0.37976   0.23633   0.77322   1.000
    C99     C    0.87975   0.23633   0.77323   1.000
    C100    C    0.34060   0.14095   0.71280   1.000
    C101    C    0.84059   0.14095   0.71280   1.000
    C102    C    0.40423   0.07179   0.63706   1.000
    C103    C    0.90422   0.07179   0.63706   1.000
    C104    C    0.04128   0.18619   0.67740   1.000
    C105    C    0.54127   0.18620   0.67746   1.000
    C106    C    0.48287   0.25834   0.75540   1.000
    C107    C    0.98286   0.25834   0.75540   1.000
    C108    C    0.47724   0.53887   0.68573   1.000
    C109    C    0.97723   0.53887   0.68570   1.000
    C110    C    0.04613   0.53721   0.76407   1.000
    C111    C    0.54612   0.53722   0.76407   1.000
    C112    C    0.00664   0.57213   0.85937   1.000
    C113    C    0.50662   0.57213   0.85937   1.000
    C114    C    0.07017   0.56559   0.92858   1.000
    C115    C    0.57016   0.56560   0.92858   1.000
    C116    C    0.20774   0.49189   0.81438   1.000
    C117    C    0.70774   0.49190   0.81438   1.000
    C118    C    0.14944   0.49759   0.74220   1.000
    C119    C    0.64944   0.49759   0.74220   1.000
    N120    N    0.33620   0.61849   0.52431   1.000
    N121    N    0.83619   0.61848   0.52429   1.000
    N122    N    0.00286   0.90562   0.38107   1.000
    N123    N    0.50286   0.90561   0.38107   1.000
    N124    N    0.16895   0.47580   0.09446   1.000
    N125    N    0.66895   0.47580   0.09445   1.000
    N126    N    0.33615   0.38106   0.47573   1.000
    N127    N    0.83614   0.38106   0.47574   1.000
    N128    N    0.00285   0.09444   0.61862   1.000
    N129    N    0.50284   0.09444   0.61860   1.000
    N130    N    0.16902   0.52471   0.90606   1.000
    N131    N    0.66902   0.52472   0.90606   1.000
    O132    O    0.19462   0.91340   0.51844   1.000
    O133    O    0.69461   0.91340   0.51844   1.000
    O134    O    0.04637   0.85534   0.55530   1.000
    O135    O    0.54636   0.85534   0.55531   1.000
    O136    O    0.36127   0.60497   0.08665   1.000
    O137    O    0.86126   0.60497   0.08665   1.000
    O138    O    0.21303   0.70029   0.14492   1.000
    O139    O    0.71302   0.70029   0.14492   1.000
    O140    O    0.02791   0.48079   0.39471   1.000
    O141    O    0.52790   0.48079   0.39471   1.000
    O142    O    0.37954   0.44446   0.29992   1.000
    O143    O    0.87953   0.44446   0.29992   1.000
    O144    O    0.19467   0.08632   0.48128   1.000
    O145    O    0.69466   0.08632   0.48128   1.000
    O146    O    0.04639   0.14478   0.44459   1.000
    O147    O    0.54639   0.14478   0.44458   1.000
    O148    O    0.36117   0.39508   0.91371   1.000
    O149    O    0.86116   0.39508   0.91370   1.000
    O150    O    0.21303   0.30006   0.85541   1.000
    O151    O    0.71302   0.30006   0.85540   1.000
    O152    O    0.02794   0.51846   0.60517   1.000
    O153    O    0.52793   0.51846   0.60510   1.000
    O154    O    0.37951   0.55545   0.70010   1.000
    O155    O    0.87951   0.55545   0.70010   1.000
loop_
    _geom_bond_atom_site_label_1
    _geom_bond_atom_site_label_2
    _geom_bond_distance
    _geom_bond_site_symmetry_2
    _ccdc_geom_bond_type
    H43    C115      1.04128  1_554   S
    H42    C114      1.04126  1_554   S
    C78    N124      1.35322      .   S
    C78    C76       1.38915      .   S
    C78    H18       1.08884  1_554   S
    C79    N125      1.35323      .   S
    C79    C77       1.38911      .   S
    C79    H19       1.08886  1_554   S
    O136   C60       1.30204      .   S
    O137   C61       1.30204      .   S
    N125   C81       1.35066      .   S
    N124   C80       1.35135      .   S
    H17    C76       1.08877  1_655   S
    H16    C77       1.08858      .   S
    C76    C74       1.39911      .   S
    C77    C75       1.39943      .   S
    O139   C61       1.24444      .   S
    O138   C60       1.24442      .   S
    C61    C63       1.51071      .   S
    C60    C62       1.51071      .   S
    C81    H21       1.08819      .   S
    C81    C83       1.38677      .   S
    C80    H20       1.08821      .   S
    C80    C82       1.38600      .   S
    H14    C71       1.08660  1_455   S
    H15    C70       1.08653      .   S
    C63    C71       1.39760      .   S
    C63    C65       1.39949      .   S
    C62    C70       1.39761      .   S
    C62    C64       1.39950      .   S
    C74    C82       1.39756      .   S
    C74    C73       1.51124  1_455   S
    C75    C83       1.39755      .   S
    C75    C72       1.51086      .   S
    C70    C69       1.38608      .   S
    C71    C68       1.38620  1_655   S
    C82    H22       1.08646      .   S
    C83    H23       1.08651      .   S
    H8     C64       1.08855      .   S
    H9     C65       1.08855      .   S
    C64    C66       1.38892      .   S
    C65    C67       1.38893      .   S
    O142   C72       1.24441      .   S
    O143   C73       1.24440      .   S
    C73    O140      1.30212  1_655   S
    C72    O141      1.30199      .   S
    C69    H13       1.08824      .   S
    C69    N123      1.35138      .   S
    C68    H12       1.08824      .   S
    C68    N122      1.35138      .   S
    C67    N122      1.35335  1_655   S
    C67    H11       1.04893  1_565   S
    C66    N123      1.35316      .   S
    C66    H10       1.04894  1_565   S
    H24    C88       1.08852      .   S
    H25    C89       1.08852      .   S
    H27    C91       1.08853      .   S
    H26    C90       1.08888      .   S
    C89    C91       1.38905      .   S
    C89    C87       1.39947      .   S
    C88    C90       1.38891      .   S
    C88    C86       1.39948      .   S
    C91    N127      1.35328      .   S
    C90    N126      1.35312      .   S
    O147   C85       1.24450      .   S
    O146   C84       1.24450      .   S
    H4     C56       1.08821      .   S
    H5     C57       1.08823      .   S
    C84    C86       1.51073      .   S
    C84    O144      1.30193      .   S
    C85    C87       1.51074      .   S
    C85    O145      1.30194      .   S
    C86    C94       1.39763      .   S
    C87    C95       1.39763      .   S
    H7     C59       1.08650      .   S
    H6     C58       1.08655      .   S
    N126   C92       1.35136      .   S
    N127   C93       1.35139      .   S
    C57    C59       1.38607      .   S
    C57    N121      1.35136      .   S
    C56    C58       1.38608      .   S
    C56    N120      1.35145      .   S
    C59    C51       1.39282      .   S
    C58    C50       1.39764      .   S
    C95    C93       1.38607      .   S
    C95    H31       1.08656      .   S
    C94    C92       1.38609      .   S
    C94    H30       1.08648      .   S
    C92    H28       1.08826      .   S
    C93    H29       1.08825      .   S
    O132   C48       1.30191      .   S
    O133   C49       1.30195      .   S
    N121   C55       1.35293      .   S
    N120   C54       1.35282      .   S
    C51    C49       1.50518      .   S
    C51    C53       1.40945      .   S
    C50    C48       1.51073      .   S
    C50    C52       1.39947      .   S
    C49    O135      1.24449      .   S
    C48    O134      1.24449      .   S
    C54    C52       1.38866      .   S
    C54    H2        1.08938      .   S
    C55    C53       1.38886      .   S
    C55    H3        1.08924      .   S
    C53    H1        1.08867      .   S
    C52    H0        1.08854      .   S
    H35    C103      1.08886  1_565   S
    H34    C102      1.08887  1_565   S
    O153   C108      1.30295      .   S
    O152   C109      1.30174  1_455   S
    N129   C102      1.35322      .   S
    N129   C105      1.35143      .   S
    N128   C103      1.35331  1_455   S
    N128   C104      1.35123      .   S
    C102   C100      1.38849      .   S
    C103   C101      1.38852      .   S
    H37    C105      1.08870      .   S
    H36    C104      1.08792      .   S
    H47    C119      1.08655      .   S
    H46    C118      1.08652      .   S
    C104   C107      1.38654  1_455   S
    C105   C106      1.38596      .   S
    C109   O155      1.24444      .   S
    C109   C110      1.51123  1_655   S
    C108   O154      1.24442      .   S
    C108   C111      1.51071      .   S
    C100   H32       1.08881      .   S
    C100   C98       1.39959      .   S
    C101   H33       1.08880      .   S
    C101   C99       1.39959      .   S
    C119   C111      1.39752      .   S
    C119   C117      1.38595      .   S
    C118   C110      1.39753      .   S
    C118   C116      1.38597      .   S
    C107   C99       1.39777      .   S
    C107   H38       1.08670  1_655   S
    C106   C98       1.39773      .   S
    C106   H39       1.08660      .   S
    C111   C113      1.39953      .   S
    C110   C112      1.39950      .   S
    C98    C96       1.51079      .   S
    C99    C97       1.51072      .   S
    H45    C117      1.08820      .   S
    H44    C116      1.08820      .   S
    C116   N130      1.35136      .   S
    C117   N131      1.35136      .   S
    C97    O151      1.24444      .   S
    C97    O149      1.30206      .   S
    C96    O150      1.24444      .   S
    C96    O148      1.30208      .   S
    C112   H41       1.08877  1_455   S
    C112   C114      1.38907      .   S
    C113   H40       1.08858      .   S
    C113   C115      1.38905      .   S
    N131   C115      1.35321      .   S
    N130   C114      1.35322      .   S
