# CIF file generated by openbabel 2.4.90, see http://openbabel.sf.net
data_I
_chemical_name_common ''
_cell_length_a 12.489
_cell_length_b 15.682
_cell_length_c 15.687
_cell_angle_alpha 120.01
_cell_angle_beta 90.011
_cell_angle_gamma 89.908
_space_group_name_H-M_alt 'P 1'
_space_group_name_Hall 'P 1'
loop_
    _symmetry_equiv_pos_as_xyz
    x,y,z
loop_
    _atom_site_label
    _atom_site_type_symbol
    _atom_site_fract_x
    _atom_site_fract_y
    _atom_site_fract_z
    _atom_site_occupancy
    C0      C    0.42561   0.49959   0.49995   1.000
    C1      C    0.92561   0.49959   0.49995   1.000
    C2      C    0.09223   0.99993   0.49975   1.000
    C3      C    0.59223   0.99993   0.49975   1.000
    C4      C    0.25868   0.50023   0.00029   1.000
    C5      C    0.75867   0.50023   0.00029   1.000
    C6      C    0.09399   0.72518   0.60384   1.000
    C7      C    0.59398   0.72518   0.60382   1.000
    C8      C    0.20953   0.58908   0.59240   1.000
    C9      C    0.70952   0.58908   0.59240   1.000
    C10     C    0.45492   0.66065   0.46004   1.000
    C11     C    0.95491   0.66065   0.46004   1.000
    C12     C    0.35086   0.80176   0.47127   1.000
    C13     C    0.85085   0.80175   0.47126   1.000
    C14     C    0.26074   0.87905   0.27481   1.000
    C15     C    0.76073   0.87906   0.27481   1.000
    C16     C    0.37627   0.00000   0.41054   1.000
    C17     C    0.87626   0.00000   0.41054   1.000
    C18     C    0.12151   0.79880   0.33882   1.000
    C19     C    0.62150   0.79880   0.33882   1.000
    C20     C    0.01742   0.66908   0.19811   1.000
    C21     C    0.51741   0.66907   0.19811   1.000
    C22     C    0.42700   0.39616   0.12123   1.000
    C23     C    0.92699   0.39616   0.12123   1.000
    C24     C    0.04227   0.40794   0.99687   1.000
    C25     C    0.54226   0.40795   0.99687   1.000
    C26     C    0.28761   0.53985   0.20098   1.000
    C27     C    0.78761   0.53985   0.20098   1.000
    C28     C    0.18380   0.52828   0.33054   1.000
    C29     C    0.68379   0.52827   0.33054   1.000
    C30     C    0.09420   0.27481   0.39587   1.000
    C31     C    0.59419   0.27482   0.39588   1.000
    C32     C    0.20976   0.41059   0.40731   1.000
    C33     C    0.70975   0.41058   0.40731   1.000
    C34     C    0.45460   0.33881   0.54035   1.000
    C35     C    0.95459   0.33881   0.54035   1.000
    C36     C    0.35051   0.19800   0.52913   1.000
    C37     C    0.85050   0.19801   0.52915   1.000
    C38     C    0.26083   0.12142   0.72526   1.000
    C39     C    0.76082   0.12142   0.72526   1.000
    C40     C    0.37635   0.99682   0.58916   1.000
    C41     C    0.87634   0.99682   0.58916   1.000
    C42     C    0.12143   0.20095   0.66088   1.000
    C43     C    0.62142   0.20095   0.66080   1.000
    C44     C    0.01739   0.33075   0.80199   1.000
    C45     C    0.51738   0.33075   0.80198   1.000
    C46     C    0.42668   0.60393   0.87882   1.000
    C47     C    0.92667   0.60393   0.87882   1.000
    C48     C    0.04194   0.59252   0.00000   1.000
    C49     C    0.54193   0.59252   0.00000   1.000
    C50     C    0.28804   0.46067   0.79970   1.000
    C51     C    0.78803   0.46067   0.79970   1.000
    C52     C    0.18419   0.47181   0.66985   1.000
    C53     C    0.68419   0.47181   0.66985   1.000
    C54     C    0.14407   0.85317   0.53873   1.000
    C55     C    0.64406   0.85316   0.53872   1.000
    C56     C    0.21309   0.77307   0.53691   1.000
    C57     C    0.71308   0.77306   0.53600   1.000
    C58     C    0.17384   0.71274   0.57193   1.000
    C59     C    0.67383   0.71274   0.57190   1.000
    C60     C    0.23748   0.63696   0.56530   1.000
    C61     C    0.73747   0.63695   0.56530   1.000
    C62     C    0.37470   0.67728   0.49137   1.000
    C63     C    0.87469   0.67727   0.49136   1.000
    C64     C    0.31629   0.75523   0.49713   1.000
    C65     C    0.81629   0.75523   0.49713   1.000
    C66     C    0.31072   0.68567   0.14697   1.000
    C67     C    0.81072   0.68567   0.14697   1.000
    C68     C    0.37973   0.76382   0.22687   1.000
    C69     C    0.87973   0.76383   0.22687   1.000
    C70     C    0.34055   0.85935   0.28713   1.000
    C71     C    0.84054   0.85935   0.28713   1.000
    C72     C    0.40419   0.92845   0.36272   1.000
    C73     C    0.90418   0.92845   0.36272   1.000
    C74     C    0.04132   0.81372   0.32233   1.000
    C75     C    0.54131   0.81371   0.32233   1.000
    C76     C    0.48289   0.74162   0.24458   1.000
    C77     C    0.98288   0.74162   0.24458   1.000
    C78     C    0.47723   0.46083   0.31429   1.000
    C79     C    0.97723   0.46083   0.31429   1.000
    C80     C    0.04609   0.46282   0.23610   1.000
    C81     C    0.54609   0.46281   0.23612   1.000
    C82     C    0.00679   0.42804   0.14082   1.000
    C83     C    0.50678   0.42804   0.14082   1.000
    C84     C    0.07031   0.43481   0.07176   1.000
    C85     C    0.57030   0.43480   0.07176   1.000
    C86     C    0.20748   0.50854   0.18616   1.000
    C87     C    0.70747   0.50853   0.18610   1.000
    C88     C    0.14919   0.50258   0.25818   1.000
    C89     C    0.64919   0.50258   0.25818   1.000
    C90     C    0.14408   0.14677   0.46115   1.000
    C91     C    0.64407   0.14678   0.46116   1.000
    C92     C    0.21304   0.22679   0.46310   1.000
    C93     C    0.71302   0.22680   0.46311   1.000
    C94     C    0.17393   0.28712   0.42793   1.000
    C95     C    0.67392   0.28712   0.42793   1.000
    C96     C    0.23758   0.36273   0.43452   1.000
    C97     C    0.73758   0.36274   0.43450   1.000
    C98     C    0.37450   0.32231   0.50888   1.000
    C99     C    0.87448   0.32231   0.50889   1.000
    C100    C    0.31607   0.24453   0.50312   1.000
    C101    C    0.81606   0.24452   0.50312   1.000
    C102    C    0.31069   0.31454   0.85332   1.000
    C103    C    0.81069   0.31454   0.85332   1.000
    C104    C    0.37976   0.23633   0.77322   1.000
    C105    C    0.87975   0.23633   0.77323   1.000
    C106    C    0.34060   0.14095   0.71280   1.000
    C107    C    0.84059   0.14095   0.71280   1.000
    C108    C    0.40423   0.07179   0.63706   1.000
    C109    C    0.90422   0.07179   0.63706   1.000
    C110    C    0.04128   0.18619   0.67740   1.000
    C111    C    0.54127   0.18620   0.67746   1.000
    C112    C    0.48287   0.25834   0.75540   1.000
    C113    C    0.98286   0.25834   0.75540   1.000
    C114    C    0.47724   0.53887   0.68573   1.000
    C115    C    0.97723   0.53887   0.68570   1.000
    C116    C    0.04613   0.53721   0.76407   1.000
    C117    C    0.54612   0.53722   0.76407   1.000
    C118    C    0.00664   0.57213   0.85937   1.000
    C119    C    0.50662   0.57213   0.85937   1.000
    C120    C    0.07017   0.56559   0.92858   1.000
    C121    C    0.57016   0.56560   0.92858   1.000
    C122    C    0.20774   0.49189   0.81438   1.000
    C123    C    0.70774   0.49190   0.81438   1.000
    C124    C    0.14944   0.49759   0.74220   1.000
    C125    C    0.64944   0.49759   0.74220   1.000
    C126    C    0.33620   0.61849   0.52431   1.000
    C127    C    0.83619   0.61848   0.52429   1.000
    C128    C    0.00286   0.90562   0.38107   1.000
    C129    C    0.50286   0.90561   0.38107   1.000
    C130    C    0.16895   0.47580   0.09446   1.000
    C131    C    0.66895   0.47580   0.09445   1.000
    C132    C    0.33615   0.38106   0.47573   1.000
    C133    C    0.83614   0.38106   0.47574   1.000
    C134    C    0.00285   0.09444   0.61862   1.000
    C135    C    0.50284   0.09444   0.61860   1.000
    C136    C    0.16902   0.52471   0.90606   1.000
    C137    C    0.66902   0.52472   0.90606   1.000
    C138    C    0.19462   0.91340   0.51844   1.000
    C139    C    0.69461   0.91340   0.51844   1.000
    C140    C    0.04637   0.85534   0.55530   1.000
    C141    C    0.54636   0.85534   0.55531   1.000
    C142    C    0.36127   0.60497   0.08665   1.000
    C143    C    0.86126   0.60497   0.08665   1.000
    C144    C    0.21303   0.70029   0.14492   1.000
    C145    C    0.71302   0.70029   0.14492   1.000
    C146    C    0.02791   0.48079   0.39471   1.000
    C147    C    0.52790   0.48079   0.39471   1.000
    C148    C    0.37954   0.44446   0.29992   1.000
    C149    C    0.87953   0.44446   0.29992   1.000
    C150    C    0.19467   0.08632   0.48128   1.000
    C151    C    0.69466   0.08632   0.48128   1.000
    C152    C    0.04639   0.14478   0.44459   1.000
    C153    C    0.54639   0.14478   0.44458   1.000
    C154    C    0.36117   0.39508   0.91371   1.000
    C155    C    0.86116   0.39508   0.91370   1.000
    C156    C    0.21303   0.30006   0.85541   1.000
    C157    C    0.71302   0.30006   0.85540   1.000
    C158    C    0.02794   0.51846   0.60517   1.000
    C159    C    0.52793   0.51846   0.60510   1.000
    C160    C    0.37951   0.55545   0.70010   1.000
    C161    C    0.87951   0.55545   0.70010   1.000
    O162    O    0.55605   0.57906   0.96429   1.000
    O163    O    0.05605   0.57906   0.96429   1.000
    O164    O    0.30997   0.55260   0.04347   1.000
    O165    O    0.21382   0.48801   0.04737   1.000
    O166    O    0.21385   0.51247   0.95317   1.000
    O167    O    0.30992   0.44765   0.95700   1.000
    O168    O    0.80997   0.55260   0.04347   1.000
    O169    O    0.71381   0.48801   0.04737   1.000
    O170    O    0.71384   0.51247   0.95317   1.000
    O171    O    0.80992   0.44765   0.95699   1.000
    O172    O    0.11963   0.45530   0.08311   1.000
    O173    O    0.03855   0.43142   0.10629   1.000
    O174    O    0.05629   0.42138   0.03431   1.000
    O175    O    0.61963   0.45530   0.08310   1.000
    O176    O    0.53854   0.43142   0.10629   1.000
    O177    O    0.55628   0.42137   0.03431   1.000
    O178    O    0.33600   0.64532   0.11681   1.000
    O179    O    0.83599   0.64532   0.11681   1.000
    O180    O    0.68821   0.49216   0.14027   1.000
    O181    O    0.18822   0.49217   0.14031   1.000
    O182    O    0.96689   0.41210   0.13103   1.000
    O183    O    0.46689   0.41210   0.13103   1.000
    O184    O    0.02644   0.44543   0.18846   1.000
    O185    O    0.52644   0.44543   0.18847   1.000
    O186    O    0.76187   0.69298   0.14594   1.000
    O187    O    0.26188   0.69298   0.14594   1.000
    O188    O    0.84522   0.72475   0.18692   1.000
    O189    O    0.34523   0.72475   0.18692   1.000
    O190    O    0.74754   0.52419   0.19354   1.000
    O191    O    0.67833   0.50556   0.22214   1.000
    O192    O    0.24755   0.52420   0.19357   1.000
    O193    O    0.17834   0.50556   0.22217   1.000
    O194    O    0.00015   0.70535   0.22134   1.000
    O195    O    0.50015   0.70535   0.22134   1.000
    O196    O    0.93130   0.75272   0.23572   1.000
    O197    O    0.86013   0.81159   0.25700   1.000
    O198    O    0.43131   0.75272   0.23572   1.000
    O199    O    0.36014   0.81159   0.25700   1.000
    O200    O    0.09764   0.48270   0.24714   1.000
    O201    O    0.01166   0.46183   0.27519   1.000
    O202    O    0.59764   0.48270   0.24715   1.000
    O203    O    0.51166   0.46182   0.27520   1.000
    O204    O    0.51210   0.77767   0.28345   1.000
    O205    O    0.01210   0.77767   0.28345   1.000
    O206    O    0.16650   0.51543   0.29436   1.000
    O207    O    0.66649   0.51543   0.29436   1.000
    O208    O    0.30064   0.86920   0.28097   1.000
    O209    O    0.80063   0.86920   0.28097   1.000
    O210    O    0.37237   0.89390   0.32492   1.000
    O211    O    0.87236   0.89390   0.32492   1.000
    O212    O    0.42839   0.45265   0.30711   1.000
    O213    O    0.92838   0.45265   0.30711   1.000
    O214    O    0.00257   0.47081   0.35450   1.000
    O215    O    0.50257   0.47081   0.35450   1.000
    O216    O    0.58141   0.80626   0.33058   1.000
    O217    O    0.52208   0.85966   0.35170   1.000
    O218    O    0.08141   0.80626   0.33058   1.000
    O219    O    0.02209   0.85967   0.35170   1.000
    O220    O    0.95352   0.91703   0.37189   1.000
    O221    O    0.89022   0.96422   0.38663   1.000
    O222    O    0.45352   0.91703   0.37189   1.000
    O223    O    0.39023   0.96422   0.38663   1.000
    O224    O    0.54754   0.95277   0.44041   1.000
    O225    O    0.04755   0.95277   0.44041   1.000
    O226    O    0.47676   0.49019   0.44733   1.000
    O227    O    0.97676   0.49019   0.44733   1.000
    O228    O    0.13407   0.28097   0.41190   1.000
    O229    O    0.63406   0.28097   0.41190   1.000
    O230    O    0.72366   0.38666   0.42090   1.000
    O231    O    0.22367   0.38666   0.42091   1.000
    O232    O    0.70575   0.32493   0.43121   1.000
    O233    O    0.69347   0.25696   0.44552   1.000
    O234    O    0.20576   0.32493   0.43123   1.000
    O235    O    0.19348   0.25696   0.44551   1.000
    O236    O    0.78686   0.37190   0.45512   1.000
    O237    O    0.28687   0.37190   0.45513   1.000
    O238    O    0.59523   0.14578   0.45287   1.000
    O239    O    0.09524   0.14578   0.45287   1.000
    O240    O    0.41481   0.66897   0.47570   1.000
    O241    O    0.91480   0.66896   0.47570   1.000
    O242    O    0.17856   0.18678   0.46212   1.000
    O243    O    0.16938   0.11655   0.47121   1.000
    O244    O    0.67855   0.18679   0.46214   1.000
    O245    O    0.66937   0.11655   0.47122   1.000
    O246    O    0.26455   0.23566   0.48311   1.000
    O247    O    0.76454   0.23566   0.48312   1.000
    O248    O    0.83357   0.77849   0.48420   1.000
    O249    O    0.33358   0.77849   0.48420   1.000
    O250    O    0.38088   0.44032   0.48784   1.000
    O251    O    0.35532   0.35168   0.49230   1.000
    O252    O    0.88088   0.44032   0.48784   1.000
    O253    O    0.85531   0.35169   0.49231   1.000
    O254    O    0.64345   0.04313   0.49051   1.000
    O255    O    0.14345   0.04313   0.49051   1.000
    O256    O    0.84549   0.71625   0.49424   1.000
    O257    O    0.85544   0.64788   0.50782   1.000
    O258    O    0.34550   0.71625   0.49425   1.000
    O259    O    0.35545   0.64788   0.50784   1.000
    O260    O    0.76468   0.76414   0.51657   1.000
    O261    O    0.26469   0.76415   0.51702   1.000
    O262    O    0.14343   0.95667   0.50909   1.000
    O263    O    0.04754   0.04718   0.55918   1.000
    O264    O    0.64342   0.95667   0.50909   1.000
    O265    O    0.54753   0.04719   0.55917   1.000
    O266    O    0.88090   0.55903   0.51212   1.000
    O267    O    0.97677   0.50902   0.55256   1.000
    O268    O    0.38091   0.55904   0.51213   1.000
    O269    O    0.47677   0.50902   0.55252   1.000
    O270    O    0.84527   0.28342   0.50601   1.000
    O271    O    0.83328   0.22127   0.51614   1.000
    O272    O    0.34528   0.28342   0.50600   1.000
    O273    O    0.33329   0.22126   0.51613   1.000
    O274    O    0.41455   0.33056   0.52461   1.000
    O275    O    0.91454   0.33056   0.52462   1.000
    O276    O    0.16934   0.88328   0.52858   1.000
    O277    O    0.66933   0.88328   0.52858   1.000
    O278    O    0.78683   0.62772   0.54480   1.000
    O279    O    0.28684   0.62772   0.54480   1.000
    O280    O    0.67857   0.81311   0.53736   1.000
    O281    O    0.69346   0.74290   0.55395   1.000
    O282    O    0.17858   0.81312   0.53782   1.000
    O283    O    0.19347   0.74291   0.55442   1.000
    O284    O    0.59521   0.85425   0.54701   1.000
    O285    O    0.09522   0.85425   0.54702   1.000
    O286    O    0.20566   0.67485   0.56861   1.000
    O287    O    0.22350   0.61302   0.57885   1.000
    O288    O    0.70565   0.67485   0.56860   1.000
    O289    O    0.72350   0.61301   0.57885   1.000
    O290    O    0.63391   0.71896   0.58786   1.000
    O291    O    0.13392   0.71896   0.58788   1.000
    O292    O    0.89028   0.03430   0.61311   1.000
    O293    O    0.39029   0.03431   0.61311   1.000
    O294    O    0.50259   0.52867   0.64541   1.000
    O295    O    0.00259   0.52867   0.64543   1.000
    O296    O    0.45353   0.08312   0.62783   1.000
    O297    O    0.52205   0.14032   0.64803   1.000
    O298    O    0.95354   0.08311   0.62784   1.000
    O299    O    0.02207   0.14031   0.64801   1.000
    O300    O    0.37242   0.10637   0.67493   1.000
    O301    O    0.87241   0.10637   0.67493   1.000
    O302    O    0.58135   0.19357   0.66913   1.000
    O303    O    0.08135   0.19357   0.66914   1.000
    O304    O    0.66681   0.48470   0.70602   1.000
    O305    O    0.16682   0.48470   0.70602   1.000
    O306    O    0.01207   0.22227   0.71640   1.000
    O307    O    0.51207   0.22227   0.71643   1.000
    O308    O    0.92837   0.54716   0.69290   1.000
    O309    O    0.01168   0.53804   0.72489   1.000
    O310    O    0.42838   0.54716   0.69291   1.000
    O311    O    0.51168   0.53805   0.72490   1.000
    O312    O    0.30072   0.13119   0.71903   1.000
    O313    O    0.36018   0.18864   0.74301   1.000
    O314    O    0.80071   0.13118   0.71903   1.000
    O315    O    0.86017   0.18864   0.74302   1.000
    O316    O    0.59778   0.51741   0.75313   1.000
    O317    O    0.67859   0.49475   0.77829   1.000
    O318    O    0.09779   0.51740   0.75313   1.000
    O319    O    0.17859   0.49474   0.77829   1.000
    O320    O    0.93130   0.24733   0.76431   1.000
    O321    O    0.00012   0.29455   0.77870   1.000
    O322    O    0.43131   0.24734   0.76431   1.000
    O323    O    0.50012   0.29455   0.77869   1.000
    O324    O    0.52637   0.55467   0.81172   1.000
    O325    O    0.02638   0.55467   0.81172   1.000
    O326    O    0.34522   0.27544   0.81327   1.000
    O327    O    0.84522   0.27543   0.81327   1.000
    O328    O    0.74789   0.47628   0.80704   1.000
    O329    O    0.24789   0.47628   0.80704   1.000
    O330    O    0.18838   0.50830   0.86022   1.000
    O331    O    0.68838   0.50831   0.86022   1.000
    O332    O    0.76185   0.30730   0.85436   1.000
    O333    O    0.83592   0.35481   0.88351   1.000
    O334    O    0.26186   0.30730   0.85436   1.000
    O335    O    0.33593   0.35481   0.88351   1.000
    O336    O    0.96665   0.58803   0.86910   1.000
    O337    O    0.03840   0.56886   0.89397   1.000
    O338    O    0.46665   0.58803   0.86910   1.000
    O339    O    0.53839   0.56886   0.89397   1.000
    O340    O    0.61959   0.54516   0.91732   1.000
    O341    O    0.11959   0.54515   0.91732   1.000
loop_
    _geom_bond_atom_site_label_1
    _geom_bond_atom_site_label_2
    _geom_bond_distance
    _geom_bond_site_symmetry_2
    _ccdc_geom_bond_type
    C49    O162      0.52064  1_554   S
    C121   O162      0.52064      .   S
    C48    O163      0.52063  1_554   S
    C120   O163      0.52063      .   S
    C4     O164      0.99437      .   S
    C142   O164      0.99437      .   S
    C4     O165      1.01890      .   S
    C130   O165      1.01890      .   S
    C4     O166      1.01883  1_554   S
    C136   O166      1.01883      .   S
    C4     O167      0.99444  1_554   S
    C154   O167      0.99444      .   S
    C5     O168      0.99436      .   S
    C143   O168      0.99436      .   S
    C5     O169      1.01886      .   S
    C131   O169      1.01886      .   S
    C5     O170      1.01885  1_554   S
    C137   O170      1.01885      .   S
    C5     O171      0.99447  1_554   S
    C155   O171      0.99447      .   S
    C84    O172      0.67661      .   S
    C130   O172      0.67661      .   S
    C84    O173      0.69458      .   S
    C82    O173      0.69458      .   S
    C84    O174      0.54442      .   S
    C24    O174      0.54442  1_556   S
    C85    O175      0.67662      .   S
    C131   O175      0.67662      .   S
    C85    O176      0.69456      .   S
    C83    O176      0.69456      .   S
    C85    O177      0.54443      .   S
    C25    O177      0.54443  1_556   S
    C142   O178      0.65102      .   S
    C66    O178      0.65102      .   S
    C143   O179      0.65102      .   S
    C67    O179      0.65102      .   S
    C131   O180      0.67533      .   S
    C87    O180      0.67533      .   S
    C130   O181      0.67567      .   S
    C86    O181      0.67567      .   S
    C23    O182      0.54439      .   S
    C82    O182      0.54439  1_455   S
    C22    O183      0.54429      .   S
    C83    O183      0.54429      .   S
    C82    O184      0.69956      .   S
    C80    O184      0.69956      .   S
    C83    O185      0.69971      .   S
    C81    O185      0.69971      .   S
    C145   O186      0.62222      .   S
    C67    O186      0.62222      .   S
    C144   O187      0.62221      .   S
    C66    O187      0.62221      .   S
    C67    O188      0.75536      .   S
    C69    O188      0.75536      .   S
    C66    O189      0.75536      .   S
    C68    O189      0.75536      .   S
    C87    O190      0.54409      .   S
    C27    O190      0.54409      .   S
    C87    O191      0.69338      .   S
    C89    O191      0.69338      .   S
    C86    O192      0.54410      .   S
    C26    O192      0.54410      .   S
    C86    O193      0.69300      .   S
    C88    O193      0.69300      .   S
    C20    O194      0.54330      .   S
    C77    O194      0.54330  1_655   S
    C21    O195      0.54327      .   S
    C76    O195      0.54327      .   S
    C69    O196      0.69880      .   S
    C77    O196      0.69880      .   S
    C69    O197      0.69975      .   S
    C71    O197      0.69975      .   S
    C68    O198      0.69881      .   S
    C76    O198      0.69881      .   S
    C68    O199      0.69975      .   S
    C70    O199      0.69975      .   S
    C80    O200      0.69878      .   S
    C88    O200      0.69878      .   S
    C80    O201      0.75562      .   S
    C79    O201      0.75562  1_655   S
    C81    O202      0.69877      .   S
    C89    O202      0.69877      .   S
    C81    O203      0.75543      .   S
    C78    O203      0.75543      .   S
    C76    O204      0.69304      .   S
    C75    O204      0.69304      .   S
    C77    O205      0.69310  1_655   S
    C74    O205      0.69310      .   S
    C88    O206      0.54323      .   S
    C28    O206      0.54323      .   S
    C89    O207      0.54326      .   S
    C29    O207      0.54326      .   S
    C14    O208      0.54428      .   S
    C70    O208      0.54428      .   S
    C15    O209      0.54427      .   S
    C71    O209      0.54427      .   S
    C70    O210      0.69446      .   S
    C72    O210      0.69446      .   S
    C71    O211      0.69447      .   S
    C73    O211      0.69447      .   S
    C148   O212      0.62221      .   S
    C78    O212      0.62221      .   S
    C149   O213      0.62220      .   S
    C79    O213      0.62220      .   S
    C79    O214      0.65106  1_655   S
    C146   O214      0.65106      .   S
    C78    O215      0.65099      .   S
    C147   O215      0.65099      .   S
    C75    O216      0.54412      .   S
    C19    O216      0.54412      .   S
    C75    O217      0.67569      .   S
    C129   O217      0.67569      .   S
    C74    O218      0.54412      .   S
    C18    O218      0.54412      .   S
    C74    O219      0.67569      .   S
    C128   O219      0.67569      .   S
    C73    O220      0.67668      .   S
    C128   O220      0.67668  1_455   S
    C73    O221      0.52446      .   S
    C17    O221      0.52446  1_545   S
    C72    O222      0.67658      .   S
    C129   O222      0.67658      .   S
    C72    O223      0.52447      .   S
    C16    O223      0.52447  1_545   S
    C129   O224      1.01852      .   S
    C3     O224      1.01852      .   S
    C128   O225      1.01851      .   S
    C2     O225      1.01851      .   S
    C147   O226      0.99463      .   S
    C0     O226      0.99463      .   S
    C146   O227      0.99469  1_455   S
    C1     O227      0.99469      .   S
    C30    O228      0.54426      .   S
    C94    O228      0.54426      .   S
    C31    O229      0.54426      .   S
    C95    O229      0.54426      .   S
    C33    O230      0.54427      .   S
    C97    O230      0.54427      .   S
    C32    O231      0.54444      .   S
    C96    O231      0.54444      .   S
    C95    O232      0.69453      .   S
    C97    O232      0.69453      .   S
    C95    O233      0.69973      .   S
    C93    O233      0.69973      .   S
    C94    O234      0.69446      .   S
    C96    O234      0.69446      .   S
    C94    O235      0.69974      .   S
    C92    O235      0.69974      .   S
    C97    O236      0.67664      .   S
    C133   O236      0.67664      .   S
    C96    O237      0.67656      .   S
    C132   O237      0.67656      .   S
    C153   O238      0.62225      .   S
    C91    O238      0.62225      .   S
    C152   O239      0.62225      .   S
    C90    O239      0.62225      .   S
    C10    O240      0.54411      .   S
    C62    O240      0.54411      .   S
    C11    O241      0.54411      .   S
    C63    O241      0.54411      .   S
    C90    O242      0.75536      .   S
    C92    O242      0.75536      .   S
    C90    O243      0.65096      .   S
    C150   O243      0.65096      .   S
    C91    O244      0.75537      .   S
    C93    O244      0.75537      .   S
    C91    O245      0.65097      .   S
    C151   O245      0.65097      .   S
    C92    O246      0.69881      .   S
    C100   O246      0.69881      .   S
    C93    O247      0.69882      .   S
    C101   O247      0.69882      .   S
    C13    O248      0.54325      .   S
    C65    O248      0.54325      .   S
    C12    O249      0.54327      .   S
    C64    O249      0.54327      .   S
    C132   O250      1.01830      .   S
    C0     O250      1.01830      .   S
    C132   O251      0.67568      .   S
    C98    O251      0.67568      .   S
    C133   O252      1.01829      .   S
    C1     O252      1.01829      .   S
    C133   O253      0.67569      .   S
    C99    O253      0.67569      .   S
    C151   O254      0.99431      .   S
    C3     O254      0.99431  1_565   S
    C150   O255      0.99430      .   S
    C2     O255      0.99430  1_565   S
    C63    O256      0.69303      .   S
    C65    O256      0.69303      .   S
    C63    O257      0.67568      .   S
    C127   O257      0.67568      .   S
    C62    O258      0.69304      .   S
    C64    O258      0.69304      .   S
    C62    O259      0.67572      .   S
    C126   O259      0.67572      .   S
    C65    O260      0.69641      .   S
    C57    O260      0.69641      .   S
    C64    O261      0.69882      .   S
    C56    O261      0.69882      .   S
    C2     O262      0.99428      .   S
    C138   O262      0.99428      .   S
    C2     O263      1.01868  1_565   S
    C134   O263      1.01868      .   S
    C3     O264      0.99428      .   S
    C139   O264      0.99428      .   S
    C3     O265      1.01862  1_565   S
    C135   O265      1.01862      .   S
    C1     O266      1.01867      .   S
    C127   O266      1.01867      .   S
    C1     O267      0.99462      .   S
    C158   O267      0.99462  1_455   S
    C0     O268      1.01866      .   S
    C126   O268      1.01866      .   S
    C0     O269      0.99415      .   S
    C159   O269      0.99415      .   S
    C101   O270      0.69304      .   S
    C99    O270      0.69304      .   S
    C101   O271      0.54328      .   S
    C37    O271      0.54328      .   S
    C100   O272      0.69304      .   S
    C98    O272      0.69304      .   S
    C100   O273      0.54324      .   S
    C36    O273      0.54324      .   S
    C98    O274      0.54413      .   S
    C34    O274      0.54413      .   S
    C99    O275      0.54413      .   S
    C35    O275      0.54413      .   S
    C138   O276      0.65095      .   S
    C54    O276      0.65095      .   S
    C139   O277      0.65097      .   S
    C55    O277      0.65097      .   S
    C127   O278      0.67646      .   S
    C61    O278      0.67646      .   S
    C126   O279      0.67641      .   S
    C60    O279      0.67641      .   S
    C57    O280      0.75259      .   S
    C55    O280      0.75259      .   S
    C57    O281      0.70473      .   S
    C59    O281      0.70473      .   S
    C56    O282      0.75536      .   S
    C54    O282      0.75536      .   S
    C56    O283      0.69974      .   S
    C58    O283      0.69974      .   S
    C55    O284      0.62224      .   S
    C141   O284      0.62224      .   S
    C54    O285      0.62224      .   S
    C140   O285      0.62224      .   S
    C60    O286      0.69433      .   S
    C58    O286      0.69433      .   S
    C60    O287      0.54469      .   S
    C8     O287      0.54469      .   S
    C61    O288      0.69443      .   S
    C59    O288      0.69443      .   S
    C61    O289      0.54462      .   S
    C9     O289      0.54462      .   S
    C59    O290      0.54434      .   S
    C7     O290      0.54434      .   S
    C58    O291      0.54427      .   S
    C6     O291      0.54427      .   S
    C41    O292      0.54443  1_565   S
    C109   O292      0.54443      .   S
    C40    O293      0.54444  1_565   S
    C108   O293      0.54444      .   S
    C159   O294      0.65148      .   S
    C114   O294      0.65148      .   S
    C158   O295      0.65087      .   S
    C115   O295      0.65087  1_655   S
    C135   O296      0.67661      .   S
    C108   O296      0.67661      .   S
    C135   O297      0.67571      .   S
    C111   O297      0.67571      .   S
    C134   O298      0.67665  1_455   S
    C109   O298      0.67665      .   S
    C134   O299      0.67562      .   S
    C110   O299      0.67562      .   S
    C108   O300      0.69425      .   S
    C106   O300      0.69425      .   S
    C109   O301      0.69426      .   S
    C107   O301      0.69426      .   S
    C43    O302      0.54435      .   S
    C111   O302      0.54435      .   S
    C42    O303      0.54396      .   S
    C110   O303      0.54396      .   S
    C53    O304      0.54328      .   S
    C125   O304      0.54328      .   S
    C52    O305      0.54326      .   S
    C124   O305      0.54326      .   S
    C110   O306      0.69327      .   S
    C113   O306      0.69327  1_655   S
    C111   O307      0.69298      .   S
    C112   O307      0.69298      .   S
    C115   O308      0.62222      .   S
    C161   O308      0.62222      .   S
    C115   O309      0.75561  1_655   S
    C116   O309      0.75561      .   S
    C114   O310      0.62221      .   S
    C160   O310      0.62221      .   S
    C114   O311      0.75536      .   S
    C117   O311      0.75536      .   S
    C106   O312      0.54441      .   S
    C38    O312      0.54441      .   S
    C106   O313      0.69980      .   S
    C104   O313      0.69980      .   S
    C107   O314      0.54440      .   S
    C39    O314      0.54440      .   S
    C107   O315      0.69980      .   S
    C105   O315      0.69980      .   S
    C125   O316      0.69876      .   S
    C117   O316      0.69876      .   S
    C125   O317      0.69298      .   S
    C123   O317      0.69298      .   S
    C124   O318      0.69877      .   S
    C116   O318      0.69877      .   S
    C124   O319      0.69299      .   S
    C122   O319      0.69299      .   S
    C113   O320      0.69888      .   S
    C105   O320      0.69888      .   S
    C113   O321      0.54335  1_655   S
    C44    O321      0.54335      .   S
    C112   O322      0.69886      .   S
    C104   O322      0.69886      .   S
    C112   O323      0.54330      .   S
    C45    O323      0.54330      .   S
    C117   O324      0.69977      .   S
    C119   O324      0.69977      .   S
    C116   O325      0.69975      .   S
    C118   O325      0.69975      .   S
    C104   O326      0.75539      .   S
    C102   O326      0.75539      .   S
    C105   O327      0.75536      .   S
    C103   O327      0.75536      .   S
    C51    O328      0.54410      .   S
    C123   O328      0.54410      .   S
    C50    O329      0.54410      .   S
    C122   O329      0.54410      .   S
    C122   O330      0.67568      .   S
    C136   O330      0.67568      .   S
    C123   O331      0.67568      .   S
    C137   O331      0.67568      .   S
    C103   O332      0.62222      .   S
    C157   O332      0.62222      .   S
    C103   O333      0.65103      .   S
    C155   O333      0.65103      .   S
    C102   O334      0.62222      .   S
    C156   O334      0.62222      .   S
    C102   O335      0.65104      .   S
    C154   O335      0.65104      .   S
    C118   O336      0.54438  1_455   S
    C47    O336      0.54438      .   S
    C118   O337      0.69453      .   S
    C120   O337      0.69453      .   S
    C119   O338      0.54429      .   S
    C46    O338      0.54429      .   S
    C119   O339      0.69452      .   S
    C121   O339      0.69452      .   S
    C137   O340      0.67660      .   S
    C121   O340      0.67660      .   S
    C136   O341      0.67661      .   S
    C120   O341      0.67661      .   S
