# CIF file generated by openbabel 2.4.90, see http://openbabel.sf.net
data_I
_chemical_name_common ''
_cell_length_a 12.489
_cell_length_b 15.682
_cell_length_c 15.687
_cell_angle_alpha 120.01
_cell_angle_beta 90.011
_cell_angle_gamma 89.908
_space_group_name_H-M_alt 'P 1'
_space_group_name_Hall 'P 1'
loop_
    _symmetry_equiv_pos_as_xyz
    x,y,z
loop_
    _atom_site_label
    _atom_site_type_symbol
    _atom_site_fract_x
    _atom_site_fract_y
    _atom_site_fract_z
    _atom_site_occupancy
    Zr0     Zr   0.42561   0.49959   0.49995   1.000
    Zr1     Zr   0.92561   0.49959   0.49995   1.000
    Zr2     Zr   0.09223   0.99993   0.49975   1.000
    Zr3     Zr   0.59223   0.99993   0.49975   1.000
    Zr4     Zr   0.25868   0.50023   0.00029   1.000
    Zr5     Zr   0.75867   0.50023   0.00029   1.000
    N6      N    0.40865   0.79619   0.26350   1.000
    O7      O    0.35931   0.67439   0.15349   1.000
    O8      O    0.47810   0.87448   0.35196   1.000
    N9      N    0.57493   0.46699   0.20354   1.000
    O10     O    0.64437   0.47750   0.12545   1.000
    O11     O    0.52584   0.47859   0.32543   1.000
    N12     N    0.74199   0.73633   0.53277   1.000
    O13     O    0.81144   0.64768   0.52244   1.000
    O14     O    0.69270   0.84650   0.52093   1.000
    N15     N    0.74195   0.26344   0.46715   1.000
    O16     O    0.69270   0.15328   0.47883   1.000
    O17     O    0.81141   0.35188   0.47750   1.000
    N18     N    0.90865   0.20367   0.73648   1.000
    O19     O    0.97809   0.12542   0.64783   1.000
    O20     O    0.85928   0.32566   0.84674   1.000
    N21     N    0.24196   0.26343   0.46715   1.000
    O22     O    0.31142   0.35188   0.47750   1.000
    O23     O    0.19271   0.15328   0.47883   1.000
    N24     N    0.40865   0.20367   0.73648   1.000
    O25     O    0.47809   0.12543   0.64783   1.000
    O26     O    0.35929   0.32566   0.84674   1.000
    N27     N    0.90865   0.79619   0.26350   1.000
    O28     O    0.97810   0.87448   0.35196   1.000
    O29     O    0.85931   0.67439   0.15349   1.000
    N30     N    0.57497   0.53314   0.79646   1.000
    O31     O    0.52587   0.52108   0.67449   1.000
    O32     O    0.64441   0.52281   0.87482   1.000
    N33     N    0.24200   0.73633   0.53284   1.000
    O34     O    0.31145   0.64769   0.52249   1.000
    O35     O    0.19271   0.84650   0.52097   1.000
    N36     N    0.07494   0.46699   0.20354   1.000
    O37     O    0.14438   0.47750   0.12546   1.000
    O38     O    0.02585   0.47859   0.32543   1.000
    N39     N    0.07497   0.53314   0.79646   1.000
    O40     O    0.02587   0.52108   0.67451   1.000
    O41     O    0.14441   0.52281   0.87482   1.000
loop_
    _geom_bond_atom_site_label_1
    _geom_bond_atom_site_label_2
    _geom_bond_distance
    _geom_bond_site_symmetry_2
    _ccdc_geom_bond_type
    N6     O7        1.92672      .   S
    Zr4    O7        2.87381      .   S
    N6     O8        1.57602      .   S
    Zr3    O8        2.59277      .   S
    N9     O10       1.57557      .   S
    Zr5    O10       2.59277      .   S
    N9     O11       1.92810      .   S
    Zr0    O11       2.87548      .   S
    N12    O13       1.57551      .   S
    Zr1    O13       2.59249      .   S
    N12    O14       1.92757      .   S
    Zr3    O14       2.87475      .   S
    N15    O16       1.92772      .   S
    Zr3    O16       2.87483  1_565   S
    N15    O17       1.57521      .   S
    Zr1    O17       2.59186      .   S
    N18    O19       1.57538      .   S
    Zr2    O19       2.59239  1_465   S
    N18    O20       1.92829      .   S
    Zr5    O20       2.87564  1_554   S
    N21    O22       1.57522      .   S
    Zr0    O22       2.59188      .   S
    N21    O23       1.92771      .   S
    Zr2    O23       2.87482  1_565   S
    N24    O25       1.57536      .   S
    Zr3    O25       2.59232  1_565   S
    N24    O26       1.92830      .   S
    Zr4    O26       2.87561  1_554   S
    N27    O28       1.57606      .   S
    Zr2    O28       2.59281  1_455   S
    N27    O29       1.92674      .   S
    Zr5    O29       2.87383      .   S
    N30    O31       1.92624      .   S
    Zr0    O31       2.87315      .   S
    N30    O32       1.57724      .   S
    Zr5    O32       2.59434  1_554   S
    N33    O34       1.57534      .   S
    Zr0    O34       2.59231      .   S
    N33    O35       1.92787      .   S
    Zr2    O35       2.87506      .   S
    N36    O37       1.57558      .   S
    Zr4    O37       2.59283      .   S
    N36    O38       1.92809      .   S
    Zr1    O38       2.87551  1_655   S
    N39    O40       1.92602      .   S
    Zr1    O40       2.87347  1_655   S
    N39    O41       1.57723      .   S
    Zr4    O41       2.59432  1_554   S
