# CIF file generated by openbabel 2.4.90, see http://openbabel.sf.net
data_I
_chemical_name_common ''
_cell_length_a 14.418
_cell_length_b 14.304
_cell_length_c 15.436
_cell_angle_alpha 89.978
_cell_angle_beta 90
_cell_angle_gamma 89.985
_space_group_name_H-M_alt 'P 1'
_space_group_name_Hall 'P 1'
loop_
    _symmetry_equiv_pos_as_xyz
    x,y,z
loop_
    _atom_site_label
    _atom_site_type_symbol
    _atom_site_fract_x
    _atom_site_fract_y
    _atom_site_fract_z
    _atom_site_occupancy
    Zn0     Zn   0.25000   0.25053   0.74985   1.000
    Zn1     Zn   0.25000   0.74993   0.25010   1.000
    Zn2     Zn   0.74999   0.25042   0.25000   1.000
    Zn3     Zn   0.74999   0.25043   0.74999   1.000
    Zn4     Zn   0.74999   0.74959   0.24997   1.000
    Zn5     Zn   0.74999   0.74959   0.74997   1.000
    H6      H    0.25041   0.41268   0.38571   1.000
    H7      H    0.24929   0.41251   0.88518   1.000
    H8      H    0.24979   0.91296   0.38491   1.000
    H9      H    0.25034   0.91257   0.88549   1.000
    H10     H    0.74991   0.41231   0.38531   1.000
    H11     H    0.74990   0.41230   0.88531   1.000
    H12     H    0.74995   0.91242   0.38534   1.000
    H13     H    0.74999   0.91242   0.88530   1.000
    H14     H    0.24981   0.08799   0.38487   1.000
    H15     H    0.25070   0.08771   0.88545   1.000
    H16     H    0.25043   0.58800   0.38581   1.000
    H17     H    0.24965   0.58772   0.88518   1.000
    H18     H    0.75000   0.08748   0.38535   1.000
    H19     H    0.75000   0.08748   0.88534   1.000
    H20     H    0.74995   0.58762   0.38531   1.000
    H21     H    0.74990   0.58761   0.88532   1.000
    H22     H    0.08702   0.25097   0.38524   1.000
    Zn23    Zn   0.25000   0.25067   0.24996   1.000
    H24     H    0.08698   0.24930   0.88530   1.000
    H25     H    0.08696   0.75027   0.38530   1.000
    H26     H    0.08697   0.74965   0.88529   1.000
    H27     H    0.58695   0.24988   0.38531   1.000
    H28     H    0.58697   0.25037   0.88525   1.000
    H29     H    0.58701   0.74993   0.38529   1.000
    H30     H    0.58699   0.74989   0.88529   1.000
    H31     H    0.41299   0.25014   0.38528   1.000
    H32     H    0.41303   0.25059   0.88527   1.000
    H33     H    0.41305   0.75020   0.38533   1.000
    H34     H    0.41303   0.74992   0.88530   1.000
    H35     H    0.91304   0.25071   0.38527   1.000
    H36     H    0.91302   0.24969   0.88529   1.000
    H37     H    0.91298   0.74999   0.38530   1.000
    H38     H    0.91299   0.74955   0.88528   1.000
    H39     H    0.24927   0.41298   0.11500   1.000
    H40     H    0.25038   0.41254   0.61451   1.000
    H41     H    0.25034   0.91291   0.11424   1.000
    H42     H    0.24977   0.91265   0.61478   1.000
    H43     H    0.74995   0.41241   0.11465   1.000
    H44     H    0.74994   0.41241   0.61465   1.000
    H45     H    0.74996   0.91254   0.11463   1.000
    H46     H    0.74992   0.91254   0.61460   1.000
    H47     H    0.25069   0.08805   0.11418   1.000
    H48     H    0.24980   0.08769   0.61475   1.000
    H49     H    0.24963   0.58819   0.11511   1.000
    H50     H    0.25040   0.58786   0.61452   1.000
    H51     H    0.74997   0.08760   0.11464   1.000
    H52     H    0.74997   0.08760   0.61463   1.000
    H53     H    0.74995   0.58772   0.11465   1.000
    H54     H    0.74999   0.58772   0.61465   1.000
    H55     H    0.41307   0.25089   0.11466   1.000
    H56     H    0.41302   0.24999   0.61460   1.000
    H57     H    0.41298   0.75011   0.11472   1.000
    H58     H    0.41300   0.75011   0.61470   1.000
    H59     H    0.91300   0.24977   0.11467   1.000
    H60     H    0.91301   0.25069   0.61469   1.000
    H61     H    0.91304   0.74962   0.11470   1.000
    H62     H    0.91302   0.75003   0.61460   1.000
    H63     H    0.08695   0.24955   0.11462   1.000
    H64     H    0.08698   0.25075   0.61468   1.000
    H65     H    0.08702   0.74983   0.11473   1.000
    H66     H    0.08700   0.75016   0.61469   1.000
    H67     H    0.58700   0.25050   0.11471   1.000
    H68     H    0.58698   0.24992   0.61465   1.000
    H69     H    0.58695   0.74997   0.11469   1.000
    H70     H    0.58697   0.74999   0.61469   1.000
    C71     C    0.25022   0.45173   0.32515   1.000
    C72     C    0.24969   0.45145   0.82458   1.000
    C73     C    0.24990   0.95183   0.32427   1.000
    C74     C    0.25023   0.95146   0.82484   1.000
    C75     C    0.74993   0.45132   0.32473   1.000
    C76     C    0.74991   0.45131   0.82473   1.000
    C77     C    0.74997   0.95131   0.32469   1.000
    C78     C    0.74999   0.95131   0.82468   1.000
    C79     C    0.24993   0.04915   0.32423   1.000
    C80     C    0.25033   0.04881   0.82483   1.000
    C81     C    0.25025   0.54908   0.32519   1.000
    C82     C    0.24980   0.54878   0.82458   1.000
    C83     C    0.74999   0.04865   0.32470   1.000
    C84     C    0.74999   0.04865   0.82460   1.000
    C85     C    0.74995   0.54865   0.32473   1.000
    C86     C    0.74992   0.54865   0.82473   1.000
    C87     C    0.04835   0.25063   0.32463   1.000
    C88     C    0.04834   0.24977   0.82467   1.000
    C89     C    0.04832   0.75016   0.32471   1.000
    C90     C    0.04832   0.74979   0.82467   1.000
    F91     F    0.16739   0.66683   0.20000   1.000
    C92     C    0.54830   0.25002   0.32469   1.000
    C93     C    0.54831   0.25024   0.82463   1.000
    C94     C    0.54833   0.75004   0.32468   1.000
    C95     C    0.54832   0.74997   0.82468   1.000
    C96     C    0.45166   0.25018   0.32467   1.000
    C97     C    0.45167   0.25031   0.82464   1.000
    C98     C    0.45169   0.75016   0.32470   1.000
    C99     C    0.45168   0.75000   0.82468   1.000
    C100    C    0.95169   0.25051   0.32465   1.000
    C101    C    0.95168   0.24985   0.82467   1.000
    C102    C    0.95165   0.75002   0.32469   1.000
    C103    C    0.95166   0.74974   0.82460   1.000
    C104    C    0.24969   0.45185   0.17566   1.000
    C105    C    0.25020   0.45150   0.67509   1.000
    C106    C    0.25023   0.95180   0.17486   1.000
    C107    C    0.24989   0.95149   0.67543   1.000
    C108    C    0.74994   0.45137   0.17520   1.000
    C109    C    0.74994   0.45138   0.67523   1.000
    C110    C    0.74997   0.95137   0.17528   1.000
    C111    C    0.74995   0.95137   0.67527   1.000
    C112    C    0.25032   0.04915   0.17482   1.000
    C113    C    0.24992   0.04883   0.67541   1.000
    C114    C    0.24979   0.54918   0.17569   1.000
    C115    C    0.25023   0.54884   0.67509   1.000
    C116    C    0.74998   0.04871   0.17529   1.000
    C117    C    0.74997   0.04871   0.67527   1.000
    C118    C    0.74995   0.54871   0.17524   1.000
    C119    C    0.74996   0.54871   0.67520   1.000
    C120    C    0.45169   0.25054   0.17529   1.000
    C121    C    0.45168   0.25003   0.67526   1.000
    C122    C    0.45166   0.75013   0.17533   1.000
    C123    C    0.45167   0.75008   0.67531   1.000
    C124    C    0.95166   0.24995   0.17528   1.000
    C125    C    0.95167   0.25043   0.67530   1.000
    C126    C    0.95169   0.74981   0.17532   1.000
    C127    C    0.95167   0.75000   0.67500   1.000
    C128    C    0.04832   0.24997   0.17526   1.000
    C129    C    0.04833   0.25044   0.67530   1.000
    C130    C    0.04835   0.74993   0.17534   1.000
    C131    C    0.04834   0.75006   0.67530   1.000
    C132    C    0.54833   0.25037   0.17532   1.000
    C133    C    0.54832   0.24998   0.67520   1.000
    C134    C    0.54830   0.75004   0.17531   1.000
    C135    C    0.54831   0.75003   0.67530   1.000
    N136    N    0.24993   0.40296   0.25038   1.000
    N137    N    0.24993   0.40266   0.74984   1.000
    N138    N    0.25001   0.90290   0.24959   1.000
    N139    N    0.25000   0.90257   0.75014   1.000
    N140    N    0.74992   0.40253   0.24990   1.000
    N141    N    0.74992   0.40253   0.74998   1.000
    N142    N    0.74996   0.90243   0.24990   1.000
    N143    N    0.74996   0.90243   0.74997   1.000
    N144    N    0.25014   0.09805   0.24950   1.000
    N145    N    0.25014   0.09773   0.75010   1.000
    N146    N    0.25005   0.59794   0.25045   1.000
    N147    N    0.25005   0.59762   0.74984   1.000
    N148    N    0.75002   0.09759   0.20000   1.000
    N149    N    0.75001   0.09759   0.74998   1.000
    N150    N    0.74997   0.59749   0.24998   1.000
    N151    N    0.74996   0.59749   0.74998   1.000
    N152    N    0.09691   0.25037   0.24994   1.000
    N153    N    0.09691   0.25012   0.74998   1.000
    N154    N    0.09690   0.75013   0.25004   1.000
    N155    N    0.09690   0.74997   0.74999   1.000
    N156    N    0.59689   0.25016   0.25001   1.000
    N157    N    0.59689   0.25012   0.74995   1.000
    N158    N    0.59688   0.74998   0.24999   1.000
    N159    N    0.59689   0.74997   0.74999   1.000
    N160    N    0.40310   0.25044   0.24997   1.000
    N161    N    0.40310   0.25020   0.74995   1.000
    N162    N    0.40310   0.75017   0.25003   1.000
    N163    N    0.40310   0.75003   0.75000   1.000
    N164    N    0.90310   0.25020   0.24997   1.000
    N165    N    0.90310   0.25016   0.74999   1.000
    N166    N    0.90310   0.74984   0.25000   1.000
    N167    N    0.90309   0.74982   0.74998   1.000
    F168    F    0.25000   0.74931   0.88500   1.000
    F169    F    0.25000   0.74931   0.11495   1.000
loop_
    _geom_bond_atom_site_label_1
    _geom_bond_atom_site_label_2
    _geom_bond_distance
    _geom_bond_site_symmetry_2
    _ccdc_geom_bond_type
    H47    C112      1.08880      .   S
    H41    C106      1.08875      .   S
    H63    C128      1.08921      .   S
    H45    C110      1.08875      .   S
    H51    C116      1.08878      .   S
    H53    C118      1.08889      .   S
    H43    C108      1.08840      .   S
    H55    C120      1.08905      .   S
    H59    C124      1.08908      .   S
    H69    C134      1.08909      .   S
    H61    C126      1.08909      .   S
    H67    C132      1.08911      .   S
    H57    C122      1.08915      .   S
    H65    C130      1.08913      .   S
    F169   Zn1       2.08620      .   S
    H39    C104      1.08922      .   S
    H49    C114      1.08877      .   S
    C112   C106      1.39245  1_545   S
    C112   N144      1.34862      .   S
    C106   N138      1.34879      .   S
    C108   C118      1.39227      .   S
    C108   N140      1.34797      .   S
    C118   N150      1.34855      .   S
    C128   C124      1.39370  1_455   S
    C128   N152      1.34893      .   S
    C110   C116      1.39237  1_565   S
    C110   N142      1.34769      .   S
    C124   N164      1.34886      .   S
    C116   N148      0.79656      .   S
    C120   C132      1.39339      .   S
    C120   N160      1.34892      .   S
    C134   C122      1.39337      .   S
    C134   N158      1.34892      .   S
    C132   N156      1.34883      .   S
    C126   C130      1.39369  1_655   S
    C126   N166      1.34892      .   S
    C122   N162      1.34893      .   S
    C130   N154      1.34895      .   S
    C104   C114      1.39217      .   S
    C104   N136      1.34862      .   S
    C114   N146      1.34865      .   S
    N148   Zn2       2.31860      .   S
    N144   Zn23      2.18318      .   S
    N144   C79       1.34881      .   S
    N138   Zn1       2.18814      .   S
    N138   C73       1.34881      .   S
    N142   Zn4       2.18618      .   S
    N142   C77       1.34990      .   S
    N140   Zn2       2.17578      .   S
    N140   C75       1.34974      .   S
    N152   Zn23      2.20727      .   S
    N152   C87       1.34887      .   S
    Zn23   N160      2.20741      .   S
    Zn23   N136      2.17831      .   S
    N164   Zn2       2.20757      .   S
    N164   C100      1.34893      .   S
    N160   C96       1.34898      .   S
    Zn4    N150      2.17561      .   S
    Zn4    N158      2.20747      .   S
    Zn4    N166      2.20753      .   S
    N150   C85       1.34864      .   S
    N158   C94       1.34880      .   S
    N166   C102      1.34882      .   S
    Zn2    N156      2.20740      .   S
    N156   C92       1.34892      .   S
    N162   C98       1.34880      .   S
    N154   Zn1       2.20738      .   S
    N154   C89       1.34880      .   S
    Zn1    N146      2.17400      .   S
    Zn1    F91       1.85226      .   S
    N136   C71       1.34881      .   S
    N146   C81       1.34866      .   S
    C79    C73       1.39205  1_545   S
    C79    H14       1.08872      .   S
    C73    H8        1.08854      .   S
    C87    C100      1.39366  1_455   S
    C87    H22       1.08910      .   S
    C100   H35       1.08909      .   S
    C96    C92       1.39337      .   S
    C96    H31       1.08909      .   S
    C94    C98       1.39336      .   S
    C94    H29       1.08915      .   S
    C102   C89       1.39367  1_655   S
    C102   H37       1.08912      .   S
    C92    H27       1.08908      .   S
    C77    C83       1.39237  1_565   S
    C77    H12       1.08878      .   S
    C98    H33       1.08920      .   S
    C83    H18       1.08875      .   S
    C89    H25       1.08867      .   S
    C75    C85       1.39225      .   S
    C75    H10       1.08877      .   S
    C85    H20       1.08881      .   S
    C71    C81       1.39255      .   S
    C71    H6        1.08875      .   S
    C81    H16       1.08901      .   S
    H40    C105      1.08881      .   S
    H50    C115      1.08873      .   S
    H56    C121      1.08966      .   S
    H46    C111      1.08902      .   S
    H62    C127      1.08621      .   S
    H52    C117      1.08865      .   S
    H44    C109      1.08879      .   S
    H68    C133      1.08825      .   S
    H54    C119      1.08839      .   S
    H64    C129      1.08912      .   S
    H70    C135      1.08902      .   S
    H66    C131      1.08909      .   S
    H60    C125      1.08905      .   S
    H58    C123      1.08909      .   S
    H48    C113      1.08874      .   S
    H42    C107      1.08879      .   S
    C127   C131      1.39368  1_655   S
    C127   N167      1.35283      .   S
    C105   C115      1.39228      .   S
    C105   N137      1.34869      .   S
    C115   N147      1.34866      .   S
    C119   C109      1.39225      .   S
    C119   N151      1.34906      .   S
    C133   C121      1.39334      .   S
    C133   N157      1.34971      .   S
    C109   N141      1.34866      .   S
    C121   N161      1.34899      .   S
    C111   C117      1.39237  1_565   S
    C111   N143      1.34874      .   S
    C117   N149      1.34883      .   S
    C129   C125      1.39364  1_455   S
    C129   N153      1.34888      .   S
    C131   N155      1.34888      .   S
    C125   N165      1.34893      .   S
    C135   C123      1.39336      .   S
    C135   N159      1.34898      .   S
    C123   N163      1.34888      .   S
    C113   C107      1.39235  1_545   S
    C113   N145      1.34872      .   S
    C107   N139      1.34872      .   S
    N147   C82       1.34852      .   S
    N137   Zn0       2.17597      .   S
    N137   C72       1.34863      .   S
    Zn0    N161      2.20739      .   S
    Zn0    N153      2.20726      .   S
    Zn0    N145      2.18575      .   S
    N161   C97       1.34892      .   S
    N157   Zn3       2.20744      .   S
    N157   C93       1.34883      .   S
    Zn5    N143      2.18617      .   S
    Zn5    N151      2.17565      .   S
    Zn5    N167      2.20747      .   S
    Zn5    N159      2.20744      .   S
    N143   C78       1.34884      .   S
    N141   Zn3       2.17571      .   S
    N141   C76       1.34865      .   S
    N153   C88       1.34892      .   S
    N151   C86       1.34866      .   S
    N149   Zn3       2.18614      .   S
    N149   C84       1.34769      .   S
    N167   C103      1.34796      .   S
    Zn3    N165      2.20757      .   S
    N155   C90       1.34887      .   S
    N165   C101      1.34885      .   S
    N159   C95       1.34888      .   S
    N163   C99       1.34885      .   S
    N145   C80       1.34892      .   S
    N139   C74       1.34886      .   S
    C82    C72       1.39217      .   S
    C82    H17       1.08891      .   S
    C72    H7        1.08852      .   S
    C103   C90       1.39367  1_655   S
    C103   H38       1.09002      .   S
    C84    C78       1.39235  1_545   S
    C84    H19       1.08996      .   S
    C93    C97       1.39340      .   S
    C93    H28       1.08915      .   S
    C97    H32       1.08916      .   S
    C101   C88       1.39372  1_655   S
    C101   H36       1.08912      .   S
    C90    H26       1.08912      .   S
    C88    H24       1.08917      .   S
    C78    H13       1.08839      .   S
    C99    C95       1.39337      .   S
    C99    H34       1.08914      .   S
    C95    H30       1.08908      .   S
    C76    C86       1.39227      .   S
    C76    H11       1.08879      .   S
    C86    H21       1.08891      .   S
    C80    C74       1.39244  1_545   S
    C80    H15       1.08890      .   S
    C74    H9        1.08881      .   S
