# CIF file generated by openbabel 2.4.90, see http://openbabel.sf.net
data_I
_chemical_name_common ''
_cell_length_a 14.418
_cell_length_b 14.304
_cell_length_c 15.436
_cell_angle_alpha 89.978
_cell_angle_beta 90
_cell_angle_gamma 89.985
_space_group_name_H-M_alt 'P 1'
_space_group_name_Hall 'P 1'
loop_
    _symmetry_equiv_pos_as_xyz
    x,y,z
loop_
    _atom_site_label
    _atom_site_type_symbol
    _atom_site_fract_x
    _atom_site_fract_y
    _atom_site_fract_z
    _atom_site_occupancy
    Zn0     Zn   0.25000   0.25053   0.74985   1.000
    Zn1     Zn   0.25000   0.74993   0.25010   1.000
    Zn2     Zn   0.74999   0.25042   0.25000   1.000
    Zn3     Zn   0.74999   0.25043   0.74999   1.000
    Zn4     Zn   0.74999   0.74959   0.24997   1.000
    Zn5     Zn   0.74999   0.74959   0.74997   1.000
    Zn6     Zn   0.25000   0.25067   0.24996   1.000
    F7      F    0.16739   0.66683   0.20000   1.000
    F8      F    0.25000   0.74931   0.11495   1.000
    Ts9     Ts   0.24998   0.30124   0.74985   1.000
    Ts10    Ts   0.25005   0.19960   0.74993   1.000
    Ts11    Ts   0.19897   0.25040   0.74989   1.000
    Ts12    Ts   0.30103   0.25042   0.74988   1.000
    Ts13    Ts   0.25001   0.80092   0.24993   1.000
    Ts14    Ts   0.25002   0.69927   0.25022   1.000
    Ts15    Ts   0.19897   0.74999   0.25008   1.000
    Ts16    Ts   0.74996   0.30113   0.24997   1.000
    Ts17    Ts   0.75000   0.19948   0.23333   1.000
    Ts18    Ts   0.69896   0.25033   0.25000   1.000
    Ts19    Ts   0.80103   0.25035   0.24999   1.000
    Ts20    Ts   0.74997   0.30113   0.74999   1.000
    Ts21    Ts   0.74999   0.19948   0.74999   1.000
    Ts22    Ts   0.69895   0.25032   0.74998   1.000
    Ts23    Ts   0.80103   0.25034   0.74999   1.000
    Ts24    Ts   0.74998   0.80054   0.24995   1.000
    Ts25    Ts   0.74998   0.69889   0.24997   1.000
    Ts26    Ts   0.69895   0.74972   0.24998   1.000
    Ts27    Ts   0.80103   0.74967   0.24998   1.000
    Ts28    Ts   0.74998   0.80054   0.74997   1.000
    Ts29    Ts   0.74998   0.69889   0.74997   1.000
    Ts30    Ts   0.69895   0.74972   0.74998   1.000
    Ts31    Ts   0.80102   0.74967   0.74997   1.000
    Ts32    Ts   0.24998   0.30144   0.25010   1.000
    Ts33    Ts   0.25005   0.19980   0.24981   1.000
    Ts34    Ts   0.19897   0.25057   0.24995   1.000
    Ts35    Ts   0.30104   0.25060   0.24996   1.000
loop_
    _geom_bond_atom_site_label_1
    _geom_bond_atom_site_label_2
    _geom_bond_distance
    _geom_bond_site_symmetry_2
    _ccdc_geom_bond_type
    F8     Zn1       2.08620      .   S
    Zn1    F7        1.85226      .   S
    Zn0    Ts9       0.72532      .   S
    Zn0    Ts10      0.72858      .   S
    Zn0    Ts11      0.73575      .   S
    Zn0    Ts12      0.73580      .   S
    Zn1    Ts13      0.72938      .   S
    Zn1    Ts14      0.72467      .   S
    Zn1    Ts15      0.73579      .   S
    Zn2    Ts16      0.72526      .   S
    Zn2    Ts17      0.77287      .   S
    Zn2    Ts18      0.73580      .   S
    Zn2    Ts19      0.73586      .   S
    Zn3    Ts20      0.72524      .   S
    Zn3    Ts21      0.72871      .   S
    Zn3    Ts22      0.73581      .   S
    Zn3    Ts23      0.73586      .   S
    Zn4    Ts24      0.72873      .   S
    Zn4    Ts25      0.72520      .   S
    Zn4    Ts26      0.73582      .   S
    Zn4    Ts27      0.73584      .   S
    Zn5    Ts28      0.72872      .   S
    Zn5    Ts29      0.72522      .   S
    Zn5    Ts30      0.73581      .   S
    Zn5    Ts31      0.73582      .   S
    Zn6    Ts32      0.72610      .   S
    Zn6    Ts33      0.72773      .   S
    Zn6    Ts34      0.73576      .   S
    Zn6    Ts35      0.73580      .   S
