# CIF file generated by openbabel 2.4.90, see http://openbabel.sf.net
data_I
_chemical_name_common ''
_cell_length_a 14.418
_cell_length_b 14.304
_cell_length_c 15.436
_cell_angle_alpha 89.978
_cell_angle_beta 90
_cell_angle_gamma 89.985
_space_group_name_H-M_alt 'P 1'
_space_group_name_Hall 'P 1'
loop_
    _symmetry_equiv_pos_as_xyz
    x,y,z
loop_
    _atom_site_label
    _atom_site_type_symbol
    _atom_site_fract_x
    _atom_site_fract_y
    _atom_site_fract_z
    _atom_site_occupancy
    C0      C    0.25000   0.25067   0.24996   1.000
    C1      C    0.25000   0.25053   0.74985   1.000
    C2      C    0.25000   0.74993   0.25010   1.000
    C3      C    0.25000   0.74967   0.75005   1.000
    C4      C    0.74999   0.25042   0.25000   1.000
    C5      C    0.74999   0.25043   0.74999   1.000
    C6      C    0.74999   0.74959   0.24997   1.000
    C7      C    0.74999   0.74959   0.74997   1.000
    C8      C    0.25001   0.25102   0.99990   1.000
    C9      C    0.24999   0.24946   0.49996   1.000
    C10     C    0.25000   0.75054   0.80000   1.000
    C11     C    0.25000   0.75106   0.50001   1.000
    C12     C    0.74999   0.24948   0.00000   1.000
    C13     C    0.74999   0.24947   0.49990   1.000
    C14     C    0.74999   0.75055   0.99999   1.000
    C15     C    0.74999   0.75054   0.49998   1.000
    C16     C    0.25041   0.41268   0.38571   1.000
    C17     C    0.24929   0.41251   0.88518   1.000
    C18     C    0.24979   0.91296   0.38491   1.000
    C19     C    0.25034   0.91257   0.88549   1.000
    C20     C    0.74991   0.41231   0.38531   1.000
    C21     C    0.74990   0.41230   0.88531   1.000
    C22     C    0.74995   0.91242   0.38534   1.000
    C23     C    0.74999   0.91242   0.88530   1.000
    C24     C    0.24981   0.08799   0.38487   1.000
    C25     C    0.25070   0.08771   0.88545   1.000
    C26     C    0.25043   0.58800   0.38581   1.000
    C27     C    0.24965   0.58772   0.88518   1.000
    C28     C    0.75000   0.08748   0.38535   1.000
    C29     C    0.75000   0.08748   0.88534   1.000
    C30     C    0.74995   0.58762   0.38531   1.000
    C31     C    0.74990   0.58761   0.88532   1.000
    C32     C    0.08702   0.25097   0.38524   1.000
    C33     C    0.08698   0.24930   0.88530   1.000
    C34     C    0.08696   0.75027   0.38530   1.000
    C35     C    0.08697   0.74965   0.88529   1.000
    C36     C    0.58695   0.24988   0.38531   1.000
    C37     C    0.58697   0.25037   0.88525   1.000
    C38     C    0.58701   0.74993   0.38529   1.000
    C39     C    0.58699   0.74989   0.88529   1.000
    C40     C    0.41299   0.25014   0.38528   1.000
    C41     C    0.41303   0.25059   0.88527   1.000
    C42     C    0.41305   0.75020   0.38533   1.000
    C43     C    0.41303   0.74992   0.88530   1.000
    C44     C    0.91304   0.25071   0.38527   1.000
    C45     C    0.91302   0.24969   0.88529   1.000
    C46     C    0.91298   0.74999   0.38530   1.000
    C47     C    0.91299   0.74955   0.88528   1.000
    C48     C    0.24927   0.41298   0.11500   1.000
    C49     C    0.25038   0.41254   0.61451   1.000
    C50     C    0.25034   0.91291   0.11424   1.000
    C51     C    0.24977   0.91265   0.61478   1.000
    C52     C    0.74995   0.41241   0.11465   1.000
    C53     C    0.74994   0.41241   0.61465   1.000
    C54     C    0.74996   0.91254   0.11463   1.000
    C55     C    0.74992   0.91254   0.61460   1.000
    C56     C    0.25069   0.08805   0.11418   1.000
    C57     C    0.24980   0.08769   0.61475   1.000
    C58     C    0.24963   0.58819   0.11511   1.000
    C59     C    0.25040   0.58786   0.61452   1.000
    C60     C    0.74997   0.08760   0.11464   1.000
    C61     C    0.74997   0.08760   0.61463   1.000
    C62     C    0.74995   0.58772   0.11465   1.000
    C63     C    0.74999   0.58772   0.61465   1.000
    C64     C    0.41307   0.25089   0.11466   1.000
    C65     C    0.41302   0.24999   0.61460   1.000
    C66     C    0.41298   0.75011   0.11472   1.000
    C67     C    0.41300   0.75011   0.61470   1.000
    C68     C    0.91300   0.24977   0.11467   1.000
    C69     C    0.91301   0.25069   0.61469   1.000
    C70     C    0.91304   0.74962   0.11470   1.000
    C71     C    0.91302   0.75003   0.61460   1.000
    C72     C    0.08695   0.24955   0.11462   1.000
    C73     C    0.08698   0.25075   0.61468   1.000
    C74     C    0.08702   0.74983   0.11473   1.000
    C75     C    0.08700   0.75016   0.61469   1.000
    C76     C    0.58700   0.25050   0.11471   1.000
    C77     C    0.58698   0.24992   0.61465   1.000
    C78     C    0.58695   0.74997   0.11469   1.000
    C79     C    0.58697   0.74999   0.61469   1.000
    C80     C    0.25022   0.45173   0.32515   1.000
    C81     C    0.24969   0.45145   0.82458   1.000
    C82     C    0.24990   0.95183   0.32427   1.000
    C83     C    0.25023   0.95146   0.82484   1.000
    C84     C    0.74993   0.45132   0.32473   1.000
    C85     C    0.74991   0.45131   0.82473   1.000
    C86     C    0.74997   0.95131   0.32469   1.000
    C87     C    0.74999   0.95131   0.82468   1.000
    C88     C    0.24993   0.04915   0.32423   1.000
    C89     C    0.25033   0.04881   0.82483   1.000
    C90     C    0.25025   0.54908   0.32519   1.000
    C91     C    0.24980   0.54878   0.82458   1.000
    C92     C    0.74999   0.04865   0.32470   1.000
    C93     C    0.74999   0.04865   0.82460   1.000
    C94     C    0.74995   0.54865   0.32473   1.000
    C95     C    0.74992   0.54865   0.82473   1.000
    C96     C    0.04835   0.25063   0.32463   1.000
    C97     C    0.04834   0.24977   0.82467   1.000
    C98     C    0.04832   0.75016   0.32471   1.000
    C99     C    0.04832   0.74979   0.82467   1.000
    C100    C    0.54830   0.25002   0.32469   1.000
    C101    C    0.54831   0.25024   0.82463   1.000
    C102    C    0.54833   0.75004   0.32468   1.000
    C103    C    0.54832   0.74997   0.82468   1.000
    C104    C    0.45166   0.25018   0.32467   1.000
    C105    C    0.45167   0.25031   0.82464   1.000
    C106    C    0.45169   0.75016   0.32470   1.000
    C107    C    0.45168   0.75000   0.82468   1.000
    C108    C    0.95169   0.25051   0.32465   1.000
    C109    C    0.95168   0.24985   0.82467   1.000
    C110    C    0.95165   0.75002   0.32469   1.000
    C111    C    0.95166   0.74974   0.82460   1.000
    C112    C    0.24969   0.45185   0.17566   1.000
    C113    C    0.25020   0.45150   0.67509   1.000
    C114    C    0.25023   0.95180   0.17486   1.000
    C115    C    0.24989   0.95149   0.67543   1.000
    C116    C    0.74994   0.45137   0.17520   1.000
    C117    C    0.74994   0.45138   0.67523   1.000
    C118    C    0.74997   0.95137   0.17528   1.000
    C119    C    0.74995   0.95137   0.67527   1.000
    C120    C    0.25032   0.04915   0.17482   1.000
    C121    C    0.24992   0.04883   0.67541   1.000
    C122    C    0.24979   0.54918   0.17569   1.000
    C123    C    0.25023   0.54884   0.67509   1.000
    C124    C    0.74998   0.04871   0.17529   1.000
    C125    C    0.74997   0.04871   0.67527   1.000
    C126    C    0.74995   0.54871   0.17524   1.000
    C127    C    0.74996   0.54871   0.67520   1.000
    C128    C    0.45169   0.25054   0.17529   1.000
    C129    C    0.45168   0.25003   0.67526   1.000
    C130    C    0.45166   0.75013   0.17533   1.000
    C131    C    0.45167   0.75008   0.67531   1.000
    C132    C    0.95166   0.24995   0.17528   1.000
    C133    C    0.95167   0.25043   0.67530   1.000
    C134    C    0.95169   0.74981   0.17532   1.000
    C135    C    0.95167   0.75000   0.67500   1.000
    C136    C    0.04832   0.24997   0.17526   1.000
    C137    C    0.04833   0.25044   0.67530   1.000
    C138    C    0.04835   0.74993   0.17534   1.000
    C139    C    0.04834   0.75006   0.67530   1.000
    C140    C    0.54833   0.25037   0.17532   1.000
    C141    C    0.54832   0.24998   0.67520   1.000
    C142    C    0.54830   0.75004   0.17531   1.000
    C143    C    0.54831   0.75003   0.67530   1.000
    C144    C    0.24993   0.40296   0.25038   1.000
    C145    C    0.24993   0.40266   0.74984   1.000
    C146    C    0.25001   0.90290   0.24959   1.000
    C147    C    0.25000   0.90257   0.75014   1.000
    C148    C    0.74992   0.40253   0.24990   1.000
    C149    C    0.74992   0.40253   0.74998   1.000
    C150    C    0.74996   0.90243   0.24990   1.000
    C151    C    0.74996   0.90243   0.74997   1.000
    C152    C    0.25014   0.09805   0.24950   1.000
    C153    C    0.25014   0.09773   0.75010   1.000
    C154    C    0.25005   0.59794   0.25045   1.000
    C155    C    0.25005   0.59762   0.74984   1.000
    C156    C    0.75002   0.09759   0.20000   1.000
    C157    C    0.75001   0.09759   0.74998   1.000
    C158    C    0.74997   0.59749   0.24998   1.000
    C159    C    0.74996   0.59749   0.74998   1.000
    C160    C    0.09691   0.25037   0.24994   1.000
    C161    C    0.09691   0.25012   0.74998   1.000
    C162    C    0.09690   0.75013   0.25004   1.000
    C163    C    0.09690   0.74997   0.74999   1.000
    C164    C    0.59689   0.25016   0.25001   1.000
    C165    C    0.59689   0.25012   0.74995   1.000
    C166    C    0.59688   0.74998   0.24999   1.000
    C167    C    0.59689   0.74997   0.74999   1.000
    C168    C    0.40310   0.25044   0.24997   1.000
    C169    C    0.40310   0.25020   0.74995   1.000
    C170    C    0.40310   0.75017   0.25003   1.000
    C171    C    0.40310   0.75003   0.75000   1.000
    C172    C    0.90310   0.25020   0.24997   1.000
    C173    C    0.90310   0.25016   0.74999   1.000
    C174    C    0.90310   0.74984   0.25000   1.000
    C175    C    0.90309   0.74982   0.74998   1.000
    C176    C    0.25000   0.25074   0.38504   1.000
    C177    C    0.25000   0.25100   0.88513   1.000
    C178    C    0.25000   0.75270   0.38506   1.000
    C179    C    0.25000   0.74931   0.88500   1.000
    C180    C    0.74999   0.25072   0.38505   1.000
    C181    C    0.74999   0.25072   0.88500   1.000
    C182    C    0.74999   0.74931   0.38505   1.000
    C183    C    0.74999   0.74931   0.88500   1.000
    C184    C    0.25000   0.25101   0.11482   1.000
    C185    C    0.25000   0.25072   0.61491   1.000
    C186    C    0.25000   0.74931   0.11495   1.000
    C187    C    0.25000   0.74931   0.61493   1.000
    C188    C    0.74999   0.25071   0.11493   1.000
    C189    C    0.74999   0.25071   0.61492   1.000
    C190    C    0.74999   0.74930   0.11493   1.000
    C191    C    0.74999   0.74930   0.61492   1.000
    C192    C    0.33510   0.33279   0.99998   1.000
    C193    C    0.33259   0.33320   0.49990   1.000
    C194    C    0.33230   0.83479   0.99999   1.000
    C195    C    0.33244   0.83500   0.50022   1.000
    C196    C    0.83258   0.33319   0.99999   1.000
    C197    C    0.83260   0.33319   0.49998   1.000
    C198    C    0.83229   0.83477   0.99999   1.000
    C199    C    0.83229   0.83477   0.49998   1.000
    C200    C    0.16489   0.16925   0.00000   1.000
    C201    C    0.16770   0.16526   0.49999   1.000
    C202    C    0.16739   0.66683   0.20000   1.000
    C203    C    0.16756   0.66704   0.49975   1.000
    C204    C    0.66769   0.16525   0.00000   1.000
    C205    C    0.66768   0.16525   0.49999   1.000
    C206    C    0.66739   0.66683   0.00000   1.000
    C207    C    0.66738   0.66683   0.49999   1.000
    C208    C    0.16884   0.33684   0.99998   1.000
    C209    C    0.16737   0.33321   0.49990   1.000
    C210    C    0.16769   0.83479   0.99999   1.000
    C211    C    0.16754   0.83502   0.50022   1.000
    C212    C    0.66736   0.33320   0.99999   1.000
    C213    C    0.66737   0.33320   0.49998   1.000
    C214    C    0.66767   0.83479   0.99999   1.000
    C215    C    0.66768   0.83478   0.49998   1.000
    C216    C    0.33119   0.16520   0.00000   1.000
    C217    C    0.33231   0.16525   0.49999   1.000
    C218    C    0.33262   0.66683   0.99998   1.000
    C219    C    0.33246   0.66702   0.49975   1.000
    C220    C    0.83230   0.16524   0.00000   1.000
    C221    C    0.83230   0.16523   0.49999   1.000
    C222    C    0.83262   0.66682   0.00000   1.000
    C223    C    0.83261   0.66682   0.49999   1.000
    O224    O    0.25050   0.06860   0.14450   1.000
    O225    O    0.25029   0.93236   0.14455   1.000
    O226    O    0.06764   0.24976   0.14494   1.000
    O227    O    0.74997   0.93196   0.14496   1.000
    O228    O    0.74997   0.06816   0.14497   1.000
    O229    O    0.74995   0.56821   0.14495   1.000
    O230    O    0.74995   0.43189   0.14493   1.000
    O231    O    0.43238   0.25071   0.14498   1.000
    O232    O    0.93233   0.24986   0.14497   1.000
    O233    O    0.56762   0.75000   0.14500   1.000
    O234    O    0.93236   0.74971   0.14501   1.000
    O235    O    0.56767   0.25044   0.14502   1.000
    O236    O    0.43232   0.75012   0.14503   1.000
    O237    O    0.06769   0.74988   0.14503   1.000
    O238    O    0.25000   0.25101   0.05736   1.000
    O239    O    0.74999   0.25010   0.05747   1.000
    O240    O    0.74999   0.74993   0.05746   1.000
    O241    O    0.25000   0.74962   0.18253   1.000
    O242    O    0.24948   0.43242   0.14533   1.000
    O243    O    0.24971   0.56869   0.14540   1.000
    O244    O    0.25027   0.00047   0.17484   1.000
    O245    O    0.25023   0.07360   0.21216   1.000
    O246    O    0.25012   0.92735   0.21222   1.000
    O247    O    0.74995   0.50004   0.17522   1.000
    O248    O    0.74993   0.42695   0.21255   1.000
    O249    O    0.74996   0.57310   0.21261   1.000
    O250    O    0.99999   0.24996   0.17527   1.000
    O251    O    0.07262   0.25017   0.21260   1.000
    O252    O    0.74998   0.00004   0.17528   1.000
    O253    O    0.74996   0.92690   0.21259   1.000
    O254    O    0.92738   0.25007   0.21263   1.000
    O255    O    0.75000   0.07315   0.18765   1.000
    O256    O    0.50001   0.25045   0.17531   1.000
    O257    O    0.42740   0.25049   0.21263   1.000
    O258    O    0.49998   0.75008   0.17532   1.000
    O259    O    0.57259   0.75001   0.21265   1.000
    O260    O    0.57261   0.25026   0.21267   1.000
    O261    O    0.00002   0.74987   0.17533   1.000
    O262    O    0.92739   0.74982   0.21266   1.000
    O263    O    0.42738   0.75015   0.21268   1.000
    O264    O    0.07263   0.75003   0.21269   1.000
    O265    O    0.24974   0.50052   0.17567   1.000
    O266    O    0.24981   0.42741   0.21302   1.000
    O267    O    0.24992   0.57356   0.21307   1.000
    O268    O    0.75000   0.17401   0.22500   1.000
    O269    O    0.25007   0.17436   0.24973   1.000
    O270    O    0.25004   0.07360   0.28687   1.000
    O271    O    0.25001   0.82642   0.24985   1.000
    O272    O    0.24996   0.92737   0.28693   1.000
    O273    O    0.74997   0.82601   0.24993   1.000
    O274    O    0.74996   0.92687   0.28730   1.000
    O275    O    0.74995   0.32648   0.24995   1.000
    O276    O    0.74992   0.42693   0.28732   1.000
    O277    O    0.17346   0.25052   0.24995   1.000
    O278    O    0.07263   0.25050   0.28728   1.000
    O279    O    0.32655   0.25056   0.24997   1.000
    O280    O    0.24997   0.32682   0.25017   1.000
    O281    O    0.82654   0.25031   0.24999   1.000
    O282    O    0.92739   0.25035   0.28731   1.000
    O283    O    0.42738   0.25031   0.28732   1.000
    O284    O    0.74998   0.67354   0.24998   1.000
    O285    O    0.67344   0.74979   0.24998   1.000
    O286    O    0.82654   0.74971   0.24999   1.000
    O287    O    0.74996   0.57307   0.28736   1.000
    O288    O    0.57261   0.75001   0.28734   1.000
    O289    O    0.92738   0.74993   0.28735   1.000
    O290    O    0.67344   0.25029   0.25001   1.000
    O291    O    0.57260   0.25009   0.28735   1.000
    O292    O    0.42740   0.75017   0.28736   1.000
    O293    O    0.17345   0.75003   0.25007   1.000
    O294    O    0.07261   0.75014   0.28738   1.000
    O295    O    0.25003   0.67394   0.25028   1.000
    O296    O    0.20870   0.70838   0.22505   1.000
    O297    O    0.25008   0.42734   0.28777   1.000
    O298    O    0.25015   0.57351   0.28782   1.000
    O299    O    0.24992   0.00049   0.32425   1.000
    O300    O    0.24987   0.06857   0.35455   1.000
    O301    O    0.24984   0.93239   0.35459   1.000
    O302    O    0.00002   0.25057   0.32464   1.000
    O303    O    0.06768   0.25080   0.35494   1.000
    O304    O    0.93236   0.25061   0.35496   1.000
    O305    O    0.49998   0.25010   0.32468   1.000
    O306    O    0.43233   0.25016   0.35497   1.000
    O307    O    0.50001   0.75010   0.32469   1.000
    O308    O    0.56767   0.74998   0.35499   1.000
    O309    O    0.99999   0.75009   0.32470   1.000
    O310    O    0.93232   0.75001   0.35500   1.000
    O311    O    0.56763   0.24995   0.35500   1.000
    O312    O    0.74998   0.99998   0.32470   1.000
    O313    O    0.74996   0.93186   0.35502   1.000
    O314    O    0.43237   0.75018   0.35501   1.000
    O315    O    0.74999   0.06806   0.35502   1.000
    O316    O    0.06764   0.75022   0.35501   1.000
    O317    O    0.74994   0.49998   0.32473   1.000
    O318    O    0.74992   0.43181   0.35502   1.000
    O319    O    0.74995   0.56813   0.35502   1.000
    O320    O    0.25023   0.50040   0.32517   1.000
    O321    O    0.25032   0.43221   0.35543   1.000
    O322    O    0.25034   0.56854   0.35550   1.000
    O323    O    0.24999   0.25010   0.44250   1.000
    O324    O    0.74999   0.25010   0.44247   1.000
    O325    O    0.74999   0.74993   0.44251   1.000
    O326    O    0.25000   0.75188   0.44254   1.000
    O327    O    0.20878   0.70905   0.49988   1.000
    O328    O    0.29123   0.70904   0.49988   1.000
    O329    O    0.79129   0.29133   0.49994   1.000
    O330    O    0.70868   0.29134   0.49994   1.000
    O331    O    0.70884   0.20736   0.49994   1.000
    O332    O    0.79114   0.20735   0.49994   1.000
    O333    O    0.74999   0.25009   0.55741   1.000
    O334    O    0.20868   0.29133   0.49993   1.000
    O335    O    0.29129   0.29133   0.49993   1.000
    O336    O    0.29115   0.20735   0.49998   1.000
    O337    O    0.20884   0.20736   0.49998   1.000
    O338    O    0.24999   0.25009   0.55744   1.000
    O339    O    0.79114   0.79265   0.49998   1.000
    O340    O    0.70883   0.79266   0.49998   1.000
    O341    O    0.79130   0.70868   0.49998   1.000
    O342    O    0.70869   0.70869   0.49998   1.000
    O343    O    0.74999   0.74992   0.55745   1.000
    O344    O    0.20877   0.79304   0.50011   1.000
    O345    O    0.29122   0.79303   0.50011   1.000
    O346    O    0.25000   0.75018   0.55747   1.000
    O347    O    0.25029   0.43202   0.64480   1.000
    O348    O    0.25032   0.56835   0.64480   1.000
    O349    O    0.43235   0.25001   0.64493   1.000
    O350    O    0.74993   0.93196   0.64494   1.000
    O351    O    0.93235   0.75001   0.64480   1.000
    O352    O    0.74997   0.06816   0.64495   1.000
    O353    O    0.74994   0.43189   0.64494   1.000
    O354    O    0.56765   0.24995   0.64493   1.000
    O355    O    0.74997   0.56821   0.64493   1.000
    O356    O    0.06766   0.25060   0.64499   1.000
    O357    O    0.56764   0.75001   0.64499   1.000
    O358    O    0.06767   0.75011   0.64499   1.000
    O359    O    0.93234   0.25056   0.64499   1.000
    O360    O    0.43234   0.75010   0.64501   1.000
    O361    O    0.24986   0.06826   0.64508   1.000
    O362    O    0.24983   0.93207   0.64511   1.000
    O363    O    0.00001   0.75003   0.67515   1.000
    O364    O    0.92738   0.74991   0.71249   1.000
    O365    O    0.25022   0.50017   0.67509   1.000
    O366    O    0.25006   0.42708   0.71247   1.000
    O367    O    0.25014   0.57323   0.71247   1.000
    O368    O    0.74995   0.50004   0.67522   1.000
    O369    O    0.74996   0.57310   0.71259   1.000
    O370    O    0.50000   0.25001   0.67523   1.000
    O371    O    0.57260   0.25005   0.71258   1.000
    O372    O    0.74993   0.42695   0.71260   1.000
    O373    O    0.42739   0.25011   0.71260   1.000
    O374    O    0.74996   0.00004   0.67527   1.000
    O375    O    0.74996   0.92690   0.71262   1.000
    O376    O    0.74999   0.07315   0.71263   1.000
    O377    O    0.00000   0.25044   0.67530   1.000
    O378    O    0.07262   0.25028   0.71264   1.000
    O379    O    0.07262   0.75002   0.71265   1.000
    O380    O    0.92739   0.25030   0.71265   1.000
    O381    O    0.49999   0.75006   0.67530   1.000
    O382    O    0.57260   0.75000   0.71265   1.000
    O383    O    0.42739   0.75005   0.71266   1.000
    O384    O    0.24991   0.00016   0.67542   1.000
    O385    O    0.25003   0.07328   0.71275   1.000
    O386    O    0.24995   0.92703   0.71279   1.000
    O387    O    0.24993   0.57320   0.78721   1.000
    O388    O    0.24996   0.32659   0.74984   1.000
    O389    O    0.24981   0.42705   0.78721   1.000
    O390    O    0.32655   0.25037   0.74990   1.000
    O391    O    0.17346   0.25033   0.74991   1.000
    O392    O    0.25007   0.17413   0.74997   1.000
    O393    O    0.42738   0.25025   0.78730   1.000
    O394    O    0.67344   0.25027   0.74997   1.000
    O395    O    0.57260   0.25018   0.78729   1.000
    O396    O    0.74997   0.82601   0.74997   1.000
    O397    O    0.74997   0.67354   0.74998   1.000
    O398    O    0.82654   0.74971   0.74998   1.000
    O399    O    0.67344   0.74978   0.74998   1.000
    O400    O    0.74997   0.92687   0.78732   1.000
    O401    O    0.74995   0.32648   0.74999   1.000
    O402    O    0.74992   0.42692   0.78736   1.000
    O403    O    0.07263   0.24994   0.78732   1.000
    O404    O    0.74994   0.57307   0.78736   1.000
    O405    O    0.75000   0.17401   0.74999   1.000
    O406    O    0.75000   0.07312   0.78729   1.000
    O407    O    0.92738   0.74978   0.78729   1.000
    O408    O    0.82654   0.25029   0.74999   1.000
    O409    O    0.07261   0.74988   0.78733   1.000
    O410    O    0.92739   0.25001   0.78733   1.000
    O411    O    0.57260   0.74997   0.78734   1.000
    O412    O    0.42739   0.75001   0.78734   1.000
    O413    O    0.25000   0.75011   0.77502   1.000
    O414    O    0.25024   0.07327   0.78746   1.000
    O415    O    0.25012   0.92701   0.78749   1.000
    O416    O    0.24975   0.50012   0.82458   1.000
    O417    O    0.24973   0.56825   0.85488   1.000
    O418    O    0.24949   0.43198   0.85488   1.000
    O419    O    0.99999   0.74977   0.82464   1.000
    O420    O    0.93232   0.74964   0.85494   1.000
    O421    O    0.74999   0.99998   0.82464   1.000
    O422    O    0.75000   0.06806   0.85497   1.000
    O423    O    0.49999   0.25028   0.82464   1.000
    O424    O    0.56764   0.25030   0.85494   1.000
    O425    O    0.43235   0.25045   0.85496   1.000
    O426    O    0.00001   0.24981   0.82467   1.000
    O427    O    0.93235   0.24977   0.85498   1.000
    O428    O    0.06765   0.74972   0.85498   1.000
    O429    O    0.06766   0.24953   0.85498   1.000
    O430    O    0.74999   0.93186   0.85499   1.000
    O431    O    0.50000   0.74998   0.82468   1.000
    O432    O    0.43235   0.74996   0.85499   1.000
    O433    O    0.56766   0.74993   0.85498   1.000
    O434    O    0.74992   0.49998   0.82473   1.000
    O435    O    0.74991   0.43181   0.85502   1.000
    O436    O    0.74991   0.56813   0.85503   1.000
    O437    O    0.25028   0.00014   0.82484   1.000
    O438    O    0.25051   0.06826   0.85514   1.000
    O439    O    0.25029   0.93202   0.85517   1.000
    O440    O    0.25000   0.74992   0.84250   1.000
    O441    O    0.74999   0.25010   0.94250   1.000
    O442    O    0.74999   0.74993   0.94250   1.000
    O443    O    0.25000   0.25101   0.94252   1.000
    O444    O    0.20942   0.29393   0.99994   1.000
    O445    O    0.29255   0.29191   0.99994   1.000
    O446    O    0.29060   0.20811   0.99995   1.000
    O447    O    0.20745   0.21014   0.99995   1.000
    O448    O    0.79128   0.29134   1.00000   1.000
    O449    O    0.79114   0.79266   0.99999   1.000
    O450    O    0.70883   0.79267   0.99999   1.000
    O451    O    0.70869   0.70869   1.00000   1.000
    O452    O    0.79131   0.70869   1.00000   1.000
    O453    O    0.70867   0.29134   1.00000   1.000
    O454    O    0.79114   0.20736   0.00000   1.000
    O455    O    0.70884   0.20737   0.00000   1.000
loop_
    _geom_bond_atom_site_label_1
    _geom_bond_atom_site_label_2
    _geom_bond_distance
    _geom_bond_site_symmetry_2
    _ccdc_geom_bond_type
    C56    O224      0.54440      .   S
    C120   O224      0.54440      .   S
    C50    O225      0.54438      .   S
    C114   O225      0.54438      .   S
    C72    O226      0.54460      .   S
    C136   O226      0.54460      .   S
    C54    O227      0.54438      .   S
    C118   O227      0.54438      .   S
    C60    O228      0.54439      .   S
    C124   O228      0.54439      .   S
    C62    O229      0.54445      .   S
    C126   O229      0.54445      .   S
    C52    O230      0.54420      .   S
    C116   O230      0.54420      .   S
    C64    O231      0.54453      .   S
    C128   O231      0.54453      .   S
    C68    O232      0.54454      .   S
    C132   O232      0.54454      .   S
    C78    O233      0.54455      .   S
    C142   O233      0.54455      .   S
    C70    O234      0.54455      .   S
    C134   O234      0.54455      .   S
    C76    O235      0.54455      .   S
    C140   O235      0.54455      .   S
    C66    O236      0.54457      .   S
    C130   O236      0.54457      .   S
    C74    O237      0.54457      .   S
    C138   O237      0.54457      .   S
    C184   O238      0.88695      .   S
    C8     O238      0.88695  1_556   S
    C188   O239      0.88708      .   S
    C12    O239      0.88708      .   S
    C190   O240      0.88715      .   S
    C14    O240      0.88715  1_556   S
    C186   O241      1.04310      .   S
    C2     O241      1.04310      .   S
    C48    O242      0.54461      .   S
    C112   O242      0.54461      .   S
    C58    O243      0.54438      .   S
    C122   O243      0.54438      .   S
    C120   O244      0.69623      .   S
    C114   O244      0.69623  1_565   S
    C120   O245      0.67431      .   S
    C152   O245      0.67431      .   S
    C114   O246      0.67440      .   S
    C146   O246      0.67440      .   S
    C116   O247      0.69613      .   S
    C126   O247      0.69613      .   S
    C116   O248      0.67398      .   S
    C148   O248      0.67398      .   S
    C126   O249      0.67427      .   S
    C158   O249      0.67427      .   S
    C136   O250      0.69685  1_455   S
    C132   O250      0.69685      .   S
    C136   O251      0.67447      .   S
    C160   O251      0.67447      .   S
    C118   O252      0.69618  1_565   S
    C124   O252      0.69618      .   S
    C118   O253      0.67384      .   S
    C150   O253      0.67384      .   S
    C132   O254      0.67443      .   S
    C172   O254      0.67443      .   S
    C124   O255      0.39828      .   S
    C156   O255      0.39828      .   S
    C128   O256      0.69669      .   S
    C140   O256      0.69669      .   S
    C128   O257      0.67446      .   S
    C168   O257      0.67446      .   S
    C142   O258      0.69669      .   S
    C130   O258      0.69669      .   S
    C142   O259      0.67446      .   S
    C166   O259      0.67446      .   S
    C140   O260      0.67442      .   S
    C164   O260      0.67442      .   S
    C134   O261      0.69684  1_655   S
    C138   O261      0.69684      .   S
    C134   O262      0.67446      .   S
    C174   O262      0.67446      .   S
    C130   O263      0.67447      .   S
    C170   O263      0.67447      .   S
    C138   O264      0.67448      .   S
    C162   O264      0.67448      .   S
    C112   O265      0.69608      .   S
    C122   O265      0.69608      .   S
    C112   O266      0.67431      .   S
    C144   O266      0.67431      .   S
    C122   O267      0.67432      .   S
    C154   O267      0.67432      .   S
    C156   O268      1.15930      .   S
    C4     O268      1.15930      .   S
    C152   O269      1.09159      .   S
    C0     O269      1.09159      .   S
    C152   O270      0.67440      .   S
    C88    O270      0.67440      .   S
    C146   O271      1.09407      .   S
    C2     O271      1.09407      .   S
    C146   O272      0.67441      .   S
    C82    O272      0.67441      .   S
    C150   O273      1.09309      .   S
    C6     O273      1.09309      .   S
    C150   O274      0.67495      .   S
    C86    O274      0.67495      .   S
    C148   O275      1.08789      .   S
    C4     O275      1.08789      .   S
    C148   O276      0.67487      .   S
    C84    O276      0.67487      .   S
    C160   O277      1.10364      .   S
    C0     O277      1.10364      .   S
    C160   O278      0.67444      .   S
    C96    O278      0.67444      .   S
    C0     O279      1.10371      .   S
    C168   O279      1.10371      .   S
    C0     O280      1.08916      .   S
    C144   O280      1.08916      .   S
    C172   O281      1.10379      .   S
    C4     O281      1.10379      .   S
    C172   O282      0.67447      .   S
    C108   O282      0.67447      .   S
    C168   O283      0.67449      .   S
    C104   O283      0.67449      .   S
    C6     O284      1.08780      .   S
    C158   O284      1.08780      .   S
    C6     O285      1.10374      .   S
    C166   O285      1.10374      .   S
    C6     O286      1.10376      .   S
    C174   O286      1.10376      .   S
    C158   O287      0.67432      .   S
    C94    O287      0.67432      .   S
    C166   O288      0.67440      .   S
    C102   O288      0.67440      .   S
    C174   O289      0.67441      .   S
    C110   O289      0.67441      .   S
    C4     O290      1.10370      .   S
    C164   O290      1.10370      .   S
    C164   O291      0.67446      .   S
    C100   O291      0.67446      .   S
    C170   O292      0.67440      .   S
    C106   O292      0.67440      .   S
    C162   O293      1.10369      .   S
    C2     O293      1.10369      .   S
    C162   O294      0.67440      .   S
    C98    O294      0.67440      .   S
    C2     O295      1.08700      .   S
    C154   O295      1.08700      .   S
    C2     O296      0.92613      .   S
    C202   O296      0.92613      .   S
    C144   O297      0.67441      .   S
    C80    O297      0.67441      .   S
    C154   O298      0.67433      .   S
    C90    O298      0.67433      .   S
    C88    O299      0.69603      .   S
    C82    O299      0.69603  1_565   S
    C88    O300      0.54436      .   S
    C24    O300      0.54436      .   S
    C82    O301      0.54427      .   S
    C18    O301      0.54427      .   S
    C96    O302      0.69683      .   S
    C108   O302      0.69683  1_655   S
    C96    O303      0.54455      .   S
    C32    O303      0.54455      .   S
    C108   O304      0.54455      .   S
    C44    O304      0.54455      .   S
    C104   O305      0.69669      .   S
    C100   O305      0.69669      .   S
    C104   O306      0.54455      .   S
    C40    O306      0.54455      .   S
    C102   O307      0.69668      .   S
    C106   O307      0.69668      .   S
    C102   O308      0.54457      .   S
    C38    O308      0.54457      .   S
    C110   O309      0.69684      .   S
    C98    O309      0.69684  1_455   S
    C110   O310      0.54456      .   S
    C46    O310      0.54456      .   S
    C100   O311      0.54454      .   S
    C36    O311      0.54454      .   S
    C86    O312      0.69618      .   S
    C92    O312      0.69618  1_545   S
    C86    O313      0.54439      .   S
    C22    O313      0.54439      .   S
    C106   O314      0.54460      .   S
    C42    O314      0.54460      .   S
    C92    O315      0.54438      .   S
    C28    O315      0.54438      .   S
    C98    O316      0.54433      .   S
    C34    O316      0.54433      .   S
    C84    O317      0.69613      .   S
    C94    O317      0.69613      .   S
    C84    O318      0.54439      .   S
    C20    O318      0.54439      .   S
    C94    O319      0.54440      .   S
    C30    O319      0.54440      .   S
    C80    O320      0.69628      .   S
    C90    O320      0.69628      .   S
    C80    O321      0.54437      .   S
    C16    O321      0.54437      .   S
    C90    O322      0.54450      .   S
    C26    O322      0.54450      .   S
    C176   O323      0.88700      .   S
    C9     O323      0.88700      .   S
    C180   O324      0.88645      .   S
    C13    O324      0.88645      .   S
    C182   O325      0.88708      .   S
    C15    O325      0.88708      .   S
    C178   O326      0.88726      .   S
    C11    O326      0.88726      .   S
    C203   O327      0.84530      .   S
    C11    O327      0.84530      .   S
    C219   O328      0.84530      .   S
    C11    O328      0.84530      .   S
    C13    O329      0.84461      .   S
    C197   O329      0.84461      .   S
    C13    O330      0.84449      .   S
    C213   O330      0.84449      .   S
    C13    O331      0.84565      .   S
    C205   O331      0.84565      .   S
    C13    O332      0.84547      .   S
    C221   O332      0.84547      .   S
    C13    O333      0.88777      .   S
    C189   O333      0.88777      .   S
    C209   O334      0.84455      .   S
    C9     O334      0.84455      .   S
    C193   O335      0.84466      .   S
    C9     O335      0.84466      .   S
    C9     O336      0.84547      .   S
    C217   O336      0.84547      .   S
    C9     O337      0.84547      .   S
    C201   O337      0.84547      .   S
    C9     O338      0.88723      .   S
    C185   O338      0.88723      .   S
    C199   O339      0.84562      .   S
    C15    O339      0.84562      .   S
    C215   O340      0.84556      .   S
    C15    O340      0.84556      .   S
    C15    O341      0.84446      .   S
    C223   O341      0.84446      .   S
    C15    O342      0.84456      .   S
    C207   O342      0.84456      .   S
    C15    O343      0.88715      .   S
    C191   O343      0.88715      .   S
    C11    O344      0.84482      .   S
    C211   O344      0.84482      .   S
    C11    O345      0.84489      .   S
    C195   O345      0.84489      .   S
    C11    O346      0.88704      .   S
    C187   O346      0.88704      .   S
    C49    O347      0.54440      .   S
    C113   O347      0.54440      .   S
    C59    O348      0.54436      .   S
    C123   O348      0.54436      .   S
    C65    O349      0.54483      .   S
    C129   O349      0.54483      .   S
    C55    O350      0.54451      .   S
    C119   O350      0.54451      .   S
    C71    O351      0.54311      .   S
    C135   O351      0.54311      .   S
    C61    O352      0.54432      .   S
    C125   O352      0.54432      .   S
    C53    O353      0.54440      .   S
    C117   O353      0.54440      .   S
    C77    O354      0.54413      .   S
    C141   O354      0.54413      .   S
    C63    O355      0.54420      .   S
    C127   O355      0.54420      .   S
    C73    O356      0.54456      .   S
    C137   O356      0.54456      .   S
    C79    O357      0.54451      .   S
    C143   O357      0.54451      .   S
    C75    O358      0.54454      .   S
    C139   O358      0.54454      .   S
    C69    O359      0.54453      .   S
    C133   O359      0.54453      .   S
    C67    O360      0.54454      .   S
    C131   O360      0.54454      .   S
    C57    O361      0.54437      .   S
    C121   O361      0.54437      .   S
    C51    O362      0.54440      .   S
    C115   O362      0.54440      .   S
    C135   O363      0.69684  1_655   S
    C139   O363      0.69684      .   S
    C135   O364      0.67642      .   S
    C175   O364      0.67642      .   S
    C113   O365      0.69614      .   S
    C123   O365      0.69614      .   S
    C113   O366      0.67434      .   S
    C145   O366      0.67434      .   S
    C123   O367      0.67433      .   S
    C155   O367      0.67433      .   S
    C127   O368      0.69613      .   S
    C117   O368      0.69613      .   S
    C127   O369      0.67453      .   S
    C159   O369      0.67453      .   S
    C141   O370      0.69667      .   S
    C129   O370      0.69667      .   S
    C141   O371      0.67486      .   S
    C165   O371      0.67486      .   S
    C117   O372      0.67433      .   S
    C149   O372      0.67433      .   S
    C129   O373      0.67450      .   S
    C169   O373      0.67450      .   S
    C119   O374      0.69618  1_565   S
    C125   O374      0.69618      .   S
    C119   O375      0.67437      .   S
    C151   O375      0.67437      .   S
    C125   O376      0.67441      .   S
    C157   O376      0.67441      .   S
    C137   O377      0.69682      .   S
    C133   O377      0.69682  1_655   S
    C137   O378      0.67444      .   S
    C161   O378      0.67444      .   S
    C139   O379      0.67444      .   S
    C163   O379      0.67444      .   S
    C133   O380      0.67447      .   S
    C173   O380      0.67447      .   S
    C143   O381      0.69668      .   S
    C131   O381      0.69668      .   S
    C143   O382      0.67449      .   S
    C167   O382      0.67449      .   S
    C131   O383      0.67444      .   S
    C171   O383      0.67444      .   S
    C121   O384      0.69618      .   S
    C115   O384      0.69618  1_565   S
    C121   O385      0.67436      .   S
    C153   O385      0.67436      .   S
    C115   O386      0.67436      .   S
    C147   O386      0.67436      .   S
    C155   O387      0.67426      .   S
    C91    O387      0.67426      .   S
    C145   O388      1.08798      .   S
    C1     O388      1.08798      .   S
    C145   O389      0.67431      .   S
    C81    O389      0.67431      .   S
    C1     O390      1.10369      .   S
    C169   O390      1.10369      .   S
    C1     O391      1.10363      .   S
    C161   O391      1.10363      .   S
    C1     O392      1.09288      .   S
    C153   O392      1.09288      .   S
    C169   O393      0.67446      .   S
    C105   O393      0.67446      .   S
    C165   O394      1.10372      .   S
    C5     O394      1.10372      .   S
    C165   O395      0.67441      .   S
    C101   O395      0.67441      .   S
    C7     O396      1.09308      .   S
    C151   O396      1.09308      .   S
    C7     O397      1.08783      .   S
    C159   O397      1.08783      .   S
    C7     O398      1.10374      .   S
    C175   O398      1.10374      .   S
    C7     O399      1.10372      .   S
    C167   O399      1.10372      .   S
    C151   O400      0.67442      .   S
    C87    O400      0.67442      .   S
    C149   O401      1.08785      .   S
    C5     O401      1.08785      .   S
    C149   O402      0.67433      .   S
    C85    O402      0.67433      .   S
    C161   O403      0.67446      .   S
    C97    O403      0.67446      .   S
    C159   O404      0.67433      .   S
    C95    O404      0.67433      .   S
    C157   O405      1.09307      .   S
    C5     O405      1.09307      .   S
    C157   O406      0.67384      .   S
    C93    O406      0.67384      .   S
    C175   O407      0.67398      .   S
    C111   O407      0.67398      .   S
    C5     O408      1.10379      .   S
    C173   O408      1.10379      .   S
    C163   O409      0.67444      .   S
    C99    O409      0.67444      .   S
    C173   O410      0.67443      .   S
    C109   O410      0.67443      .   S
    C167   O411      0.67444      .   S
    C103   O411      0.67444      .   S
    C171   O412      0.67442      .   S
    C107   O412      0.67442      .   S
    C3     O413      0.38557      .   S
    C10    O413      0.38557      .   S
    C153   O414      0.67446      .   S
    C89    O414      0.67446      .   S
    C147   O415      0.67443      .   S
    C83    O415      0.67443      .   S
    C91    O416      0.69608      .   S
    C81    O416      0.69608      .   S
    C91    O417      0.54446      .   S
    C27    O417      0.54446      .   S
    C81    O418      0.54426      .   S
    C17    O418      0.54426      .   S
    C111   O419      0.69684      .   S
    C99    O419      0.69684  1_455   S
    C111   O420      0.54501      .   S
    C47    O420      0.54501      .   S
    C93    O421      0.69618  1_545   S
    C87    O421      0.69618      .   S
    C93    O422      0.54498      .   S
    C29    O422      0.54498      .   S
    C101   O423      0.69670      .   S
    C105   O423      0.69670      .   S
    C101   O424      0.54457      .   S
    C37    O424      0.54457      .   S
    C105   O425      0.54458      .   S
    C41    O425      0.54458      .   S
    C109   O426      0.69686  1_655   S
    C97    O426      0.69686      .   S
    C109   O427      0.54456      .   S
    C45    O427      0.54456      .   S
    C99    O428      0.54456      .   S
    C35    O428      0.54456      .   S
    C97    O429      0.54459      .   S
    C33    O429      0.54459      .   S
    C87    O430      0.54420      .   S
    C23    O430      0.54420      .   S
    C107   O431      0.69668      .   S
    C103   O431      0.69668      .   S
    C107   O432      0.54457      .   S
    C43    O432      0.54457      .   S
    C103   O433      0.54454      .   S
    C39    O433      0.54454      .   S
    C85    O434      0.69613      .   S
    C95    O434      0.69613      .   S
    C85    O435      0.54439      .   S
    C21    O435      0.54439      .   S
    C95    O436      0.54445      .   S
    C31    O436      0.54445      .   S
    C89    O437      0.69622      .   S
    C83    O437      0.69622  1_565   S
    C89    O438      0.54445      .   S
    C25    O438      0.54445      .   S
    C83    O439      0.54441      .   S
    C19    O439      0.54441      .   S
    C179   O440      0.65609      .   S
    C10    O440      0.65609      .   S
    C181   O441      0.88761      .   S
    C12    O441      0.88761  1_554   S
    C183   O442      0.88754      .   S
    C14    O442      0.88754      .   S
    C177   O443      0.88579      .   S
    C8     O443      0.88579      .   S
    C8     O444      0.84791      .   S
    C208   O444      0.84791      .   S
    C8     O445      0.84765      .   S
    C192   O445      0.84765      .   S
    C8     O446      0.84795      .   S
    C216   O446      0.84795  1_554   S
    C8     O447      0.84774      .   S
    C200   O447      0.84774  1_554   S
    C196   O448      0.84450      .   S
    C12    O448      0.84450  1_554   S
    C14    O449      0.84558      .   S
    C198   O449      0.84558      .   S
    C14    O450      0.84556      .   S
    C214   O450      0.84556      .   S
    C14    O451      0.84457      .   S
    C206   O451      0.84457  1_554   S
    C14    O452      0.84449      .   S
    C222   O452      0.84449  1_554   S
    C212   O453      0.84447      .   S
    C12    O453      0.84447  1_554   S
    C12    O454      0.84559      .   S
    C220   O454      0.84559      .   S
    C12    O455      0.84562      .   S
    C204   O455      0.84562      .   S
