# CIF file generated by openbabel 2.4.90, see http://openbabel.sf.net
data_I
_chemical_name_common ''
_cell_length_a 14.297
_cell_length_b 18.902
_cell_length_c 18.901
_cell_angle_alpha 66.133
_cell_angle_beta 75.395
_cell_angle_gamma 104.605
_space_group_name_H-M_alt 'P 1'
_space_group_name_Hall 'P 1'
loop_
    _symmetry_equiv_pos_as_xyz
    x,y,z
loop_
    _atom_site_label
    _atom_site_type_symbol
    _atom_site_fract_x
    _atom_site_fract_y
    _atom_site_fract_z
    _atom_site_occupancy
    N0      N    0.76640   0.76348   0.62419   1.000
    N1      N    0.39050   0.62428   0.61226   1.000
    N2      N    0.00291   0.61229   0.76337   1.000
    N3      N    0.60952   0.37569   0.38771   1.000
    N4      N    0.23363   0.23647   0.37576   1.000
    N5      N    0.99721   0.38774   0.23650   1.000
    Zr6     Zr   0.50009   1.00000   0.49992   1.000
    Zr7     Zr   0.50004   0.50000   0.99998   1.000
    Zr8     Zr   0.00000   0.49998   0.49998   1.000
    O9      O    0.93471   0.57480   0.53533   1.000
    O10     O    0.11511   0.53870   0.52707   1.000
    O11     O    0.88489   0.46125   0.47291   1.000
    O12     O    0.06531   0.42515   0.46463   1.000
    O13     O    0.57650   0.93420   0.53863   1.000
    O14     O    0.35996   0.88981   0.57471   1.000
    O15     O    0.42364   0.06579   0.46123   1.000
    O16     O    0.64021   0.11019   0.42512   1.000
    O17     O    0.47003   0.53538   0.88981   1.000
    O18     O    0.64225   0.52710   0.93413   1.000
    O19     O    0.53003   0.46460   0.11016   1.000
    O20     O    0.35783   0.47290   0.06581   1.000
loop_
    _geom_bond_atom_site_label_1
    _geom_bond_atom_site_label_2
    _geom_bond_distance
    _geom_bond_site_symmetry_2
    _ccdc_geom_bond_type
    Zr8    O9        2.10577  1_455   S
    N0     O9        5.33537      .   S
    Zr8    O10       1.90439      .   S
    N1     O10       4.77535      .   S
    Zr8    O11       1.90432  1_455   S
    N3     O11       4.77514      .   S
    Zr8    O12       2.10589      .   S
    N4     O12       5.33570      .   S
    Zr6    O13       1.90461      .   S
    N0     O13       4.77593      .   S
    Zr6    O14       2.10590      .   S
    N2     O14       5.33577      .   S
    Zr6    O15       1.90480  1_565   S
    N4     O15       4.77641      .   S
    Zr6    O16       2.10586  1_565   S
    N5     O16       5.33564      .   S
    Zr7    O17       2.10618      .   S
    N1     O17       5.33624      .   S
    Zr7    O18       1.90476      .   S
    N2     O18       4.77613  1_455   S
    Zr7    O19       2.10606  1_556   S
    N3     O19       5.33593      .   S
    Zr7    O20       1.90456  1_556   S
    N5     O20       4.77558  1_655   S
