# CIF file generated by openbabel 2.4.90, see http://openbabel.sf.net
data_I
_chemical_name_common ''
_cell_length_a 14.297
_cell_length_b 18.902
_cell_length_c 18.901
_cell_angle_alpha 66.133
_cell_angle_beta 75.395
_cell_angle_gamma 104.605
_space_group_name_H-M_alt 'P 1'
_space_group_name_Hall 'P 1'
loop_
    _symmetry_equiv_pos_as_xyz
    x,y,z
loop_
    _atom_site_label
    _atom_site_type_symbol
    _atom_site_fract_x
    _atom_site_fract_y
    _atom_site_fract_z
    _atom_site_occupancy
    C0      C    0.54950   0.57381   0.97706   1.000
    C1      C    0.52638   0.97703   0.44904   1.000
    C2      C    0.97554   0.44906   0.57381   1.000
    C3      C    0.45057   0.42619   0.02291   1.000
    C4      C    0.47379   0.02296   0.55080   1.000
    C5      C    0.02447   0.55089   0.42616   1.000
    C6      C    0.25203   0.54369   0.61359   1.000
    C7      C    0.53995   0.76776   0.48070   1.000
    C8      C    0.49864   0.81554   0.35376   1.000
    C9      C    0.33182   0.72794   0.35763   1.000
    C10     C    0.36964   0.49286   0.66760   1.000
    C11     C    0.39825   0.44706   0.80084   1.000
    C12     C    0.50908   0.70349   0.74906   1.000
    C13     C    0.47719   0.74954   0.61727   1.000
    C14     C    0.86561   0.61364   0.84260   1.000
    C15     C    0.02086   0.48077   0.75158   1.000
    C16     C    0.85257   0.35386   0.83057   1.000
    C17     C    0.68948   0.35774   0.91408   1.000
    C18     C    0.03742   0.66765   0.83950   1.000
    C19     C    0.19947   0.80074   0.75210   1.000
    C20     C    0.25837   0.74901   0.54750   1.000
    C21     C    0.09453   0.61732   0.63317   1.000
    C22     C    0.70839   0.84256   0.54367   1.000
    C23     C    0.77224   0.75149   0.76776   1.000
    C24     C    0.68311   0.83070   0.81547   1.000
    C25     C    0.60386   0.91434   0.72785   1.000
    C26     C    0.87706   0.83967   0.49285   1.000
    C27     C    0.95164   0.75236   0.44693   1.000
    C28     C    0.80599   0.54754   0.70329   1.000
    C29     C    0.72791   0.63316   0.74947   1.000
    C30     C    0.74796   0.45627   0.38645   1.000
    C31     C    0.46005   0.23221   0.51927   1.000
    C32     C    0.50134   0.18439   0.64620   1.000
    C33     C    0.66814   0.27196   0.64239   1.000
    C34     C    0.63037   0.50712   0.33242   1.000
    C35     C    0.60179   0.55294   0.19917   1.000
    C36     C    0.49100   0.29653   0.25089   1.000
    C37     C    0.52285   0.25045   0.38270   1.000
    C38     C    0.13442   0.38640   0.15732   1.000
    C39     C    0.97928   0.51933   0.24834   1.000
    C40     C    0.14761   0.64621   0.16934   1.000
    C41     C    0.31066   0.64227   0.08585   1.000
    C42     C    0.96277   0.33245   0.16030   1.000
    C43     C    0.80079   0.19930   0.24764   1.000
    C44     C    0.74166   0.25098   0.45236   1.000
    C45     C    0.90542   0.38272   0.36672   1.000
    C46     C    0.29166   0.15734   0.45635   1.000
    C47     C    0.22777   0.24845   0.23227   1.000
    C48     C    0.31693   0.16930   0.18450   1.000
    C49     C    0.39628   0.08569   0.27206   1.000
    C50     C    0.12294   0.16027   0.50700   1.000
    C51     C    0.04830   0.24759   0.55305   1.000
    C52     C    0.19392   0.45233   0.29660   1.000
    C53     C    0.27204   0.36670   0.25054   1.000
    C54     C    0.18049   0.58024   0.49008   1.000
    C55     C    0.28307   0.63016   0.48568   1.000
    C56     C    0.30781   0.60256   0.55653   1.000
    C57     C    0.39976   0.65176   0.55607   1.000
    C58     C    0.46802   0.72884   0.48208   1.000
    C59     C    0.44467   0.75574   0.41074   1.000
    C60     C    0.35223   0.70708   0.41218   1.000
    C61     C    0.42103   0.62443   0.63330   1.000
    C62     C    0.39872   0.53900   0.68598   1.000
    C63     C    0.41524   0.51313   0.76015   1.000
    C64     C    0.45519   0.57246   0.78314   1.000
    C65     C    0.47860   0.65788   0.73064   1.000
    C66     C    0.46141   0.68343   0.65673   1.000
    C67     C    0.47219   0.54513   0.86275   1.000
    C68     C    0.67058   0.49020   0.92939   1.000
    C69     C    0.76876   0.48576   0.88392   1.000
    C70     C    0.86436   0.55660   0.84076   1.000
    C71     C    0.95591   0.55614   0.79211   1.000
    C72     C    0.95023   0.48217   0.78900   1.000
    C73     C    0.85554   0.41083   0.83340   1.000
    C74     C    0.76445   0.41230   0.88046   1.000
    C75     C    0.05447   0.63332   0.74228   1.000
    C76     C    0.08490   0.68598   0.77506   1.000
    C77     C    0.17568   0.76009   0.72678   1.000
    C78     C    0.23863   0.78304   0.64448   1.000
    C79     C    0.20945   0.73060   0.61152   1.000
    C80     C    0.11828   0.65676   0.65985   1.000
    C81     C    0.33524   0.86264   0.59213   1.000
    C82     C    0.60028   0.92954   0.58021   1.000
    C83     C    0.65289   0.88399   0.63014   1.000
    C84     C    0.70527   0.84076   0.60254   1.000
    C85     C    0.74811   0.79212   0.65173   1.000
    C86     C    0.73918   0.78898   0.72885   1.000
    C87     C    0.68894   0.83346   0.75570   1.000
    C88     C    0.64516   0.88065   0.70702   1.000
    C89     C    0.79684   0.74229   0.62440   1.000
    C90     C    0.86000   0.77513   0.53890   1.000
    C91     C    0.90253   0.72692   0.51301   1.000
    C92     C    0.88312   0.64458   0.57229   1.000
    C93     C    0.82111   0.61158   0.65770   1.000
    C94     C    0.77825   0.65986   0.68334   1.000
    C95     C    0.92737   0.59228   0.54494   1.000
    C96     C    0.81949   0.41969   0.50995   1.000
    C97     C    0.71691   0.36977   0.51435   1.000
    C98     C    0.69218   0.39739   0.44300   1.000
    C99     C    0.60023   0.34822   0.44393   1.000
    C100    C    0.53198   0.27111   0.51790   1.000
    C101    C    0.55530   0.24420   0.58926   1.000
    C102    C    0.64774   0.29284   0.58784   1.000
    C103    C    0.57896   0.37554   0.36671   1.000
    C104    C    0.60133   0.46099   0.31402   1.000
    C105    C    0.58478   0.48686   0.23986   1.000
    C106    C    0.54487   0.42755   0.21680   1.000
    C107    C    0.52144   0.34213   0.26933   1.000
    C108    C    0.53866   0.31657   0.34323   1.000
    C109    C    0.52791   0.45488   0.13720   1.000
    C110    C    0.32949   0.50979   0.07057   1.000
    C111    C    0.23132   0.51427   0.11601   1.000
    C112    C    0.13571   0.44345   0.15910   1.000
    C113    C    0.04417   0.44393   0.20780   1.000
    C114    C    0.04988   0.51791   0.21090   1.000
    C115    C    0.14460   0.58922   0.16653   1.000
    C116    C    0.23567   0.58774   0.11947   1.000
    C117    C    0.94562   0.36673   0.25761   1.000
    C118    C    0.91523   0.31411   0.22479   1.000
    C119    C    0.82453   0.23994   0.27307   1.000
    C120    C    0.76152   0.21697   0.35537   1.000
    C121    C    0.79063   0.26940   0.38835   1.000
    C122    C    0.88173   0.34331   0.34002   1.000
    C123    C    0.66494   0.13736   0.40769   1.000
    C124    C    0.39988   0.07045   0.41970   1.000
    C125    C    0.34720   0.11597   0.36982   1.000
    C126    C    0.29479   0.15917   0.39746   1.000
    C127    C    0.25194   0.20781   0.34828   1.000
    C128    C    0.26081   0.21093   0.27117   1.000
    C129    C    0.31113   0.16653   0.24420   1.000
    C130    C    0.35496   0.11936   0.29292   1.000
    C131    C    0.20319   0.25762   0.37560   1.000
    C132    C    0.13995   0.22478   0.46107   1.000
    C133    C    0.09745   0.27302   0.48698   1.000
    C134    C    0.11683   0.35535   0.42767   1.000
    C135    C    0.17885   0.38832   0.34224   1.000
    C136    C    0.22168   0.34001   0.31666   1.000
    C137    C    0.07257   0.40765   0.45500   1.000
    C138    C    0.11704   0.51409   0.56109   1.000
    C139    C    0.16271   0.60830   0.42309   1.000
    C140    C    0.43274   0.46571   0.91536   1.000
    C141    C    0.52536   0.60338   0.87273   1.000
    C142    C    0.67828   0.56118   0.92464   1.000
    C143    C    0.58572   0.42328   0.96810   1.000
    C144    C    0.34874   0.91518   0.61900   1.000
    C145    C    0.39805   0.87271   0.52370   1.000
    C146    C    0.60284   0.92466   0.51410   1.000
    C147    C    0.55466   0.96863   0.60800   1.000
    C148    C    0.96773   0.61926   0.46549   1.000
    C149    C    0.92193   0.52390   0.60322   1.000
    C150    C    0.88293   0.48584   0.43890   1.000
    C151    C    0.83727   0.39163   0.57694   1.000
    C152    C    0.56706   0.53432   0.08472   1.000
    C153    C    0.47499   0.39662   0.12712   1.000
    C154    C    0.32183   0.43873   0.07555   1.000
    C155    C    0.41430   0.57676   0.03156   1.000
    C156    C    0.65138   0.08485   0.38078   1.000
    C157    C    0.60223   0.12721   0.47600   1.000
    C158    C    0.39751   0.07547   0.48572   1.000
    C159    C    0.44537   0.03127   0.39178   1.000
    C160    C    0.03228   0.38071   0.53445   1.000
    C161    C    0.07808   0.47607   0.39672   1.000
    O162    O    0.38620   0.43246   0.04923   1.000
    O163    O    0.46278   0.41140   0.07501   1.000
    O164    O    0.44166   0.44595   0.96913   1.000
    O165    O    0.51815   0.42473   0.99550   1.000
    O166    O    0.37190   0.54328   0.05106   1.000
    O167    O    0.48190   0.57528   0.00431   1.000
    O168    O    0.32566   0.47426   0.07306   1.000
    O169    O    0.28041   0.51203   0.09329   1.000
    O170    O    0.54749   0.49460   0.11096   1.000
    O171    O    0.55828   0.55406   0.03089   1.000
    O172    O    0.27317   0.61501   0.10266   1.000
    O173    O    0.23350   0.55100   0.11774   1.000
    O174    O    0.18352   0.47886   0.13755   1.000
    O175    O    0.19014   0.58848   0.14300   1.000
    O176    O    0.50145   0.42575   0.13216   1.000
    O177    O    0.53639   0.44122   0.17700   1.000
    O178    O    0.13507   0.41493   0.15821   1.000
    O179    O    0.08994   0.44369   0.18345   1.000
    O180    O    0.93900   0.32328   0.19254   1.000
    O181    O    0.14611   0.61772   0.16793   1.000
    O182    O    0.09724   0.55357   0.18871   1.000
    O183    O    0.31403   0.16791   0.21435   1.000
    O184    O    0.59328   0.51990   0.21951   1.000
    O185    O    0.04702   0.48092   0.20935   1.000
    O186    O    0.99490   0.40533   0.23270   1.000
    O187    O    0.01458   0.51862   0.22962   1.000
    O188    O    0.56483   0.45721   0.22833   1.000
    O189    O    0.53316   0.38484   0.24306   1.000
    O190    O    0.93043   0.34042   0.24120   1.000
    O191    O    0.86988   0.27702   0.24893   1.000
    O192    O    0.24429   0.22969   0.25172   1.000
    O193    O    0.59306   0.47393   0.27694   1.000
    O194    O    0.28597   0.18873   0.25768   1.000
    O195    O    0.33304   0.14295   0.26856   1.000
    O196    O    0.81266   0.21962   0.26035   1.000
    O197    O    0.24686   0.35336   0.28360   1.000
    O198    O    0.50622   0.31933   0.26011   1.000
    O199    O    0.91368   0.35502   0.29881   1.000
    O200    O    0.53005   0.32935   0.30628   1.000
    O201    O    0.25638   0.20937   0.30972   1.000
    O202    O    0.37562   0.10253   0.28249   1.000
    O203    O    0.79303   0.22845   0.31422   1.000
    O204    O    0.35108   0.11767   0.33137   1.000
    O205    O    0.18638   0.42032   0.31942   1.000
    O206    O    0.61585   0.48406   0.32322   1.000
    O207    O    0.59014   0.41827   0.34036   1.000
    O208    O    0.20026   0.36416   0.32945   1.000
    O209    O    0.21243   0.29882   0.34613   1.000
    O210    O    0.89358   0.36301   0.35337   1.000
    O211    O    0.83618   0.30636   0.36418   1.000
    O212    O    0.14784   0.37183   0.38495   1.000
    O213    O    0.55881   0.34606   0.35497   1.000
    O214    O    0.53076   0.28351   0.36296   1.000
    O215    O    0.22757   0.23272   0.36194   1.000
    O216    O    0.27337   0.18349   0.37287   1.000
    O217    O    0.47166   0.78564   0.38225   1.000
    O218    O    0.77608   0.24319   0.37186   1.000
    O219    O    0.71323   0.17717   0.38153   1.000
    O220    O    0.34203   0.71751   0.38490   1.000
    O221    O    0.58960   0.36188   0.40532   1.000
    O222    O    0.32100   0.13757   0.38364   1.000
    O223    O    0.37354   0.09321   0.39476   1.000
    O224    O    0.17157   0.24120   0.41833   1.000
    O225    O    0.65816   0.11111   0.39423   1.000
    O226    O    0.58888   0.03094   0.41491   1.000
    O227    O    0.72007   0.42683   0.41472   1.000
    O228    O    0.76615   0.26019   0.42035   1.000
    O229    O    0.42263   0.05086   0.40574   1.000
    O230    O    0.48588   0.00415   0.42041   1.000
    O231    O    0.05128   0.51348   0.41144   1.000
    O232    O    0.07533   0.44186   0.42586   1.000
    O233    O    0.29322   0.15825   0.42690   1.000
    O234    O    0.63358   0.13228   0.44184   1.000
    O235    O    0.39845   0.73141   0.41146   1.000
    O236    O    0.45635   0.74229   0.44641   1.000
    O237    O    0.31765   0.66862   0.44893   1.000
    O238    O    0.39869   0.07296   0.45271   1.000
    O239    O    0.09359   0.57960   0.42462   1.000
    O240    O    0.17160   0.59427   0.45658   1.000
    O241    O    0.95370   0.51837   0.43253   1.000
    O242    O    0.99610   0.58508   0.44582   1.000
    O243    O    0.09470   0.38150   0.44133   1.000
    O244    O    0.10714   0.31418   0.45732   1.000
    O245    O    0.85121   0.45276   0.47442   1.000
    O246    O    0.64620   0.37280   0.44346   1.000
    O247    O    0.70455   0.38358   0.47867   1.000
    O248    O    0.56611   0.30966   0.48091   1.000
    O249    O    0.92709   0.73964   0.47997   1.000
    O250    O    0.56461   0.95085   0.48157   1.000
    O251    O    0.46222   0.92487   0.48637   1.000
    O252    O    0.05242   0.39418   0.49472   1.000
    O253    O    0.11870   0.24890   0.47402   1.000
    O254    O    0.13145   0.19253   0.48403   1.000
    O255    O    0.94755   0.60577   0.50521   1.000
    O256    O    0.53801   0.07509   0.51340   1.000
    O257    O    0.50398   0.74830   0.48139   1.000
    O258    O    0.43389   0.69030   0.51907   1.000
    O259    O    0.23178   0.60520   0.48788   1.000
    O260    O    0.29544   0.61636   0.52110   1.000
    O261    O    0.43565   0.04922   0.51826   1.000
    O262    O    0.07287   0.26030   0.52001   1.000
    O263    O    0.14876   0.54716   0.52558   1.000
    O264    O    0.86853   0.80740   0.51587   1.000
    O265    O    0.76820   0.39473   0.51215   1.000
    O266    O    0.82838   0.40566   0.54344   1.000
    O267    O    0.88126   0.75103   0.52595   1.000
    O268    O    0.89282   0.68575   0.54265   1.000
    O269    O    0.60156   0.92710   0.54715   1.000
    O270    O    0.68232   0.33131   0.55109   1.000
    O271    O    0.49602   0.25166   0.51858   1.000
    O272    O    0.54364   0.25766   0.55358   1.000
    O273    O    0.36664   0.86767   0.55791   1.000
    O274    O    0.00391   0.41488   0.55413   1.000
    O275    O    0.82842   0.75871   0.58165   1.000
    O276    O    0.70683   0.84166   0.57310   1.000
    O277    O    0.90525   0.61843   0.55861   1.000
    O278    O    0.92465   0.55809   0.57408   1.000
    O279    O    0.23391   0.73980   0.57951   1.000
    O280    O    0.51423   0.99579   0.57940   1.000
    O281    O    0.41126   0.96907   0.58490   1.000
    O282    O    0.35379   0.62716   0.55630   1.000
    O283    O    0.41040   0.63810   0.59468   1.000
    O284    O    0.27992   0.57313   0.58506   1.000
    O285    O    0.04629   0.48157   0.56745   1.000
    O286    O    0.85212   0.62808   0.61499   1.000
    O287    O    0.90640   0.42034   0.57537   1.000
    O288    O    0.94873   0.48648   0.58851   1.000
    O289    O    0.57747   0.94909   0.59410   1.000
    O290    O    0.62659   0.90677   0.60517   1.000
    O291    O    0.60152   0.26852   0.58855   1.000
    O292    O    0.65794   0.28240   0.61511   1.000
    O293    O    0.52832   0.21430   0.61773   1.000
    O294    O    0.34199   0.88891   0.60556   1.000
    O295    O    0.28694   0.82284   0.61830   1.000
    O296    O    0.67908   0.86238   0.61634   1.000
    O297    O    0.72669   0.81644   0.62713   1.000
    O298    O    0.22404   0.75682   0.62800   1.000
    O299    O    0.16386   0.69368   0.63568   1.000
    O300    O    0.46930   0.71649   0.63700   1.000
    O301    O    0.77247   0.76721   0.63806   1.000
    O302    O    0.78754   0.70107   0.65387   1.000
    O303    O    0.64903   0.88232   0.66858   1.000
    O304    O    0.10640   0.63704   0.64651   1.000
    O305    O    0.44122   0.65393   0.64501   1.000
    O306    O    0.40987   0.58171   0.65964   1.000
    O307    O    0.20716   0.77157   0.68563   1.000
    O308    O    0.74365   0.79055   0.69029   1.000
    O309    O    0.47001   0.67065   0.69368   1.000
    O310    O    0.79968   0.63572   0.67052   1.000
    O311    O    0.81355   0.57956   0.68049   1.000
    O312    O    0.08637   0.64504   0.70107   1.000
    O313    O    0.38418   0.51593   0.67679   1.000
    O314    O    0.75308   0.64651   0.71640   1.000
    O315    O    0.40698   0.52606   0.72306   1.000
    O316    O    0.62451   0.89749   0.71743   1.000
    O317    O    0.66705   0.85705   0.73136   1.000
    O318    O    0.18758   0.78042   0.73944   1.000
    O319    O    0.13029   0.72303   0.75092   1.000
    O320    O    0.71406   0.81122   0.74227   1.000
    O321    O    0.75571   0.77024   0.74830   1.000
    O322    O    0.49384   0.68069   0.73985   1.000
    O323    O    0.46690   0.61517   0.75689   1.000
    O324    O    0.06969   0.65965   0.75867   1.000
    O325    O    0.00519   0.59473   0.76719   1.000
    O326    O    0.98554   0.48147   0.77029   1.000
    O327    O    0.68603   0.83208   0.78558   1.000
    O328    O    0.43521   0.54280   0.77164   1.000
    O329    O    0.40674   0.48010   0.78049   1.000
    O330    O    0.06116   0.67681   0.80728   1.000
    O331    O    0.46369   0.55879   0.82294   1.000
    O332    O    0.95307   0.51915   0.79055   1.000
    O333    O    0.90288   0.44650   0.81120   1.000
    O334    O    0.91014   0.55637   0.81643   1.000
    O335    O    0.85405   0.38234   0.83198   1.000
    O336    O    0.80999   0.41156   0.85693   1.000
    O337    O    0.86499   0.58512   0.84168   1.000
    O338    O    0.81656   0.52118   0.86234   1.000
    O339    O    0.49878   0.57425   0.86774   1.000
    O340    O    0.45247   0.50542   0.88905   1.000
    O341    O    0.53743   0.58859   0.92489   1.000
    O342    O    0.76660   0.44903   0.88219   1.000
    O343    O    0.72696   0.38502   0.89727   1.000
    O344    O    0.71967   0.48798   0.90665   1.000
    O345    O    0.67443   0.52569   0.92701   1.000
    O346    O    0.61389   0.56749   0.95085   1.000
    O347    O    0.62815   0.45674   0.94874   1.000
    O348    O    0.50004   0.50000   0.99998   1.000
    O349    O    0.50009   1.00000   0.49992   1.000
    O350    O    0.00000   0.49998   0.49998   1.000
loop_
    _geom_bond_atom_site_label_1
    _geom_bond_atom_site_label_2
    _geom_bond_distance
    _geom_bond_site_symmetry_2
    _ccdc_geom_bond_type
    C3     O162      0.99016      .   S
    C154   O162      0.99016      .   S
    C3     O163      0.98339      .   S
    C153   O163      0.98339      .   S
    C3     O164      0.98540  1_554   S
    C140   O164      0.98540      .   S
    C3     O165      0.98738  1_554   S
    C143   O165      0.98738      .   S
    C155   O166      0.63957      .   S
    C110   O166      0.63957      .   S
    C155   O167      0.98710      .   S
    C0     O167      0.98710  1_556   S
    C110   O168      0.64096      .   S
    C154   O168      0.64096      .   S
    C110   O169      0.74586      .   S
    C111   O169      0.74586      .   S
    C152   O170      0.64083      .   S
    C109   O170      0.64083      .   S
    C152   O171      0.98539      .   S
    C0     O171      0.98539  1_556   S
    C41    O172      0.54421      .   S
    C116   O172      0.54421      .   S
    C111   O173      0.70161      .   S
    C116   O173      0.70161      .   S
    C111   O174      0.69953      .   S
    C112   O174      0.69953      .   S
    C116   O175      0.69675      .   S
    C115   O175      0.69675      .   S
    C153   O176      0.64107      .   S
    C109   O176      0.64107      .   S
    C109   O177      0.74289      .   S
    C106   O177      0.74289      .   S
    C38    O178      0.54399      .   S
    C112   O178      0.54399      .   S
    C112   O179      0.70100      .   S
    C113   O179      0.70100      .   S
    C42    O180      0.54529      .   S
    C118   O180      0.54529      .   S
    C115   O181      0.54519      .   S
    C40    O181      0.54519      .   S
    C115   O182      0.69750      .   S
    C114   O182      0.69750      .   S
    C48    O183      0.54445      .   S
    C129   O183      0.54445      .   S
    C35    O184      0.54447      .   S
    C105   O184      0.54447      .   S
    C113   O185      0.70300      .   S
    C114   O185      0.70300      .   S
    C113   O186      0.73879  1_455   S
    C117   O186      0.73879      .   S
    C114   O187      0.54521      .   S
    C39    O187      0.54521  1_655   S
    C106   O188      0.70190      .   S
    C105   O188      0.70190      .   S
    C106   O189      0.70134      .   S
    C107   O189      0.70134      .   S
    C118   O190      0.70355      .   S
    C117   O190      0.70355      .   S
    C118   O191      0.69482      .   S
    C119   O191      0.69482      .   S
    C47    O192      0.54516      .   S
    C128   O192      0.54516      .   S
    C105   O193      0.69476      .   S
    C104   O193      0.69476      .   S
    C129   O194      0.69779      .   S
    C128   O194      0.69779      .   S
    C129   O195      0.69710      .   S
    C130   O195      0.69710      .   S
    C43    O196      0.54443      .   S
    C119   O196      0.54443      .   S
    C53    O197      0.54487      .   S
    C136   O197      0.54487      .   S
    C36    O198      0.54409      .   S
    C107   O198      0.54409      .   S
    C117   O199      0.70304      .   S
    C122   O199      0.70304      .   S
    C107   O200      0.69502      .   S
    C108   O200      0.69502      .   S
    C128   O201      0.70307      .   S
    C127   O201      0.70307      .   S
    C49    O202      0.54422      .   S
    C130   O202      0.54422      .   S
    C119   O203      0.70168      .   S
    C120   O203      0.70168      .   S
    C130   O204      0.70157      .   S
    C125   O204      0.70157      .   S
    C52    O205      0.54426      .   S
    C135   O205      0.54426      .   S
    C104   O206      0.54527      .   S
    C34    O206      0.54527      .   S
    C104   O207      0.70357      .   S
    C103   O207      0.70357      .   S
    C136   O208      0.69502      .   S
    C135   O208      0.69502      .   S
    C136   O209      0.70289      .   S
    C131   O209      0.70289      .   S
    C122   O210      0.54488      .   S
    C45    O210      0.54488      .   S
    C122   O211      0.69497      .   S
    C121   O211      0.69497      .   S
    C135   O212      0.70123      .   S
    C134   O212      0.70123      .   S
    C108   O213      0.70300      .   S
    C103   O213      0.70300      .   S
    C108   O214      0.54493      .   S
    C37    O214      0.54493      .   S
    C127   O215      0.73852      .   S
    C131   O215      0.73852      .   S
    C127   O216      0.70080      .   S
    C126   O216      0.70080      .   S
    C8     O217      0.54518      .   S
    C59    O217      0.54518      .   S
    C120   O218      0.70122      .   S
    C121   O218      0.70122      .   S
    C120   O219      0.74302      .   S
    C123   O219      0.74302      .   S
    C9     O220      0.54417      .   S
    C60    O220      0.54417      .   S
    C103   O221      0.73866      .   S
    C99    O221      0.73866      .   S
    C125   O222      0.69950      .   S
    C126   O222      0.69950      .   S
    C125   O223      0.74580      .   S
    C124   O223      0.74580      .   S
    C131   O224      0.70381      .   S
    C132   O224      0.70381      .   S
    C156   O225      0.64082      .   S
    C123   O225      0.64082      .   S
    C156   O226      0.98543      .   S
    C1     O226      0.98543  1_565   S
    C30    O227      0.54244      .   S
    C98    O227      0.54244      .   S
    C121   O228      0.54410      .   S
    C44    O228      0.54410      .   S
    C159   O229      0.63954      .   S
    C124   O229      0.63954      .   S
    C159   O230      0.98704      .   S
    C1     O230      0.98704  1_565   S
    C161   O231      0.98310      .   S
    C5     O231      0.98310      .   S
    C161   O232      0.64109      .   S
    C137   O232      0.64109      .   S
    C126   O233      0.54432      .   S
    C46    O233      0.54432      .   S
    C123   O234      0.63966      .   S
    C157   O234      0.63966      .   S
    C59    O235      0.69676      .   S
    C60    O235      0.69676      .   S
    C59    O236      0.69747      .   S
    C58    O236      0.69747      .   S
    C60    O237      0.70167      .   S
    C55    O237      0.70167      .   S
    C124   O238      0.64096      .   S
    C158   O238      0.64096      .   S
    C139   O239      0.98702      .   S
    C5     O239      0.98702      .   S
    C139   O240      0.63952      .   S
    C54    O240      0.63952      .   S
    C5     O241      0.99054  1_455   S
    C150   O241      0.99054      .   S
    C5     O242      0.98523  1_455   S
    C148   O242      0.98523      .   S
    C134   O243      0.74306      .   S
    C137   O243      0.74306      .   S
    C134   O244      0.70167      .   S
    C133   O244      0.70167      .   S
    C150   O245      0.64119      .   S
    C96    O245      0.64119      .   S
    C98    O246      0.69845      .   S
    C99    O246      0.69845      .   S
    C98    O247      0.70358      .   S
    C97    O247      0.70358      .   S
    C99    O248      0.70302      .   S
    C100   O248      0.70302      .   S
    C27    O249      0.54444      .   S
    C91    O249      0.54444      .   S
    C1     O250      0.99066      .   S
    C146   O250      0.99066      .   S
    C1     O251      0.98289      .   S
    C145   O251      0.98289      .   S
    C137   O252      0.64093      .   S
    C160   O252      0.64093      .   S
    C132   O253      0.69483      .   S
    C133   O253      0.69483      .   S
    C132   O254      0.54476      .   S
    C50    O254      0.54476      .   S
    C148   O255      0.64090      .   S
    C95    O255      0.64090      .   S
    C157   O256      0.98297      .   S
    C4     O256      0.98297      .   S
    C7     O257      0.54515      .   S
    C58    O257      0.54515      .   S
    C58    O258      0.70299      .   S
    C57    O258      0.70299      .   S
    C55    O259      0.74590      .   S
    C54    O259      0.74590      .   S
    C55    O260      0.69946      .   S
    C56    O260      0.69946      .   S
    C158   O261      0.99025      .   S
    C4     O261      0.99025      .   S
    C133   O262      0.54443      .   S
    C51    O262      0.54443      .   S
    C54    O263      0.64102      .   S
    C138   O263      0.64102      .   S
    C26    O264      0.54515      .   S
    C90    O264      0.54515      .   S
    C96    O265      0.74587      .   S
    C97    O265      0.74587      .   S
    C96    O266      0.63950      .   S
    C151   O266      0.63950      .   S
    C91    O267      0.69458      .   S
    C90    O267      0.69458      .   S
    C91    O268      0.70165      .   S
    C92    O268      0.70165      .   S
    C146   O269      0.64095      .   S
    C82    O269      0.64095      .   S
    C97    O270      0.70167      .   S
    C102   O270      0.70167      .   S
    C100   O271      0.54517      .   S
    C31    O271      0.54517      .   S
    C100   O272      0.69752      .   S
    C101   O272      0.69752      .   S
    C145   O273      0.64118      .   S
    C81    O273      0.64118      .   S
    C160   O274      0.98523      .   S
    C2     O274      0.98523  1_655   S
    C90    O275      0.70390      .   S
    C89    O275      0.70390      .   S
    C22    O276      0.54426      .   S
    C84    O276      0.54426      .   S
    C95    O277      0.74306      .   S
    C92    O277      0.74306      .   S
    C95    O278      0.64111      .   S
    C149   O278      0.64111      .   S
    C20    O279      0.54411      .   S
    C79    O279      0.54411      .   S
    C4     O280      0.98626  1_545   S
    C147   O280      0.98626      .   S
    C4     O281      0.98545  1_545   S
    C144   O281      0.98545      .   S
    C57    O282      0.70077      .   S
    C56    O282      0.70077      .   S
    C57    O283      0.73873      .   S
    C61    O283      0.73873      .   S
    C56    O284      0.54427      .   S
    C6     O284      0.54427      .   S
    C138   O285      0.99035      .   S
    C2     O285      0.99035  1_655   S
    C92    O286      0.70101      .   S
    C93    O286      0.70101      .   S
    C2     O287      0.98700      .   S
    C151   O287      0.98700      .   S
    C2     O288      0.98306      .   S
    C149   O288      0.98306      .   S
    C82    O289      0.63861      .   S
    C147   O289      0.63861      .   S
    C82    O290      0.74580      .   S
    C83    O290      0.74580      .   S
    C102   O291      0.69677      .   S
    C101   O291      0.69677      .   S
    C102   O292      0.54415      .   S
    C33    O292      0.54415      .   S
    C101   O293      0.54508      .   S
    C32    O293      0.54508      .   S
    C81    O294      0.64081      .   S
    C144   O294      0.64081      .   S
    C81    O295      0.74302      .   S
    C78    O295      0.74302      .   S
    C84    O296      0.69948      .   S
    C83    O296      0.69948      .   S
    C84    O297      0.70077      .   S
    C85    O297      0.70077      .   S
    C79    O298      0.70125      .   S
    C78    O298      0.70125      .   S
    C79    O299      0.69498      .   S
    C80    O299      0.69498      .   S
    C13    O300      0.54491      .   S
    C66    O300      0.54491      .   S
    C89    O301      0.73869      .   S
    C85    O301      0.73869      .   S
    C89    O302      0.70297      .   S
    C94    O302      0.70297      .   S
    C83    O303      0.70158      .   S
    C88    O303      0.70158      .   S
    C21    O304      0.54498      .   S
    C80    O304      0.54498      .   S
    C61    O305      0.70299      .   S
    C66    O305      0.70299      .   S
    C61    O306      0.70356      .   S
    C62    O306      0.70356      .   S
    C78    O307      0.70161      .   S
    C77    O307      0.70161      .   S
    C85    O308      0.70300      .   S
    C86    O308      0.70300      .   S
    C66    O309      0.69503      .   S
    C65    O309      0.69503      .   S
    C93    O310      0.69518      .   S
    C94    O310      0.69518      .   S
    C93    O311      0.54419      .   S
    C28    O311      0.54419      .   S
    C80    O312      0.70298      .   S
    C75    O312      0.70298      .   S
    C10    O313      0.54528      .   S
    C62    O313      0.54528      .   S
    C94    O314      0.54490      .   S
    C29    O314      0.54490      .   S
    C62    O315      0.69474      .   S
    C63    O315      0.69474      .   S
    C88    O316      0.54421      .   S
    C25    O316      0.54421      .   S
    C88    O317      0.69674      .   S
    C87    O317      0.69674      .   S
    C77    O318      0.54380      .   S
    C19    O318      0.54380      .   S
    C77    O319      0.69481      .   S
    C76    O319      0.69481      .   S
    C86    O320      0.69751      .   S
    C87    O320      0.69751      .   S
    C86    O321      0.54517      .   S
    C23    O321      0.54517      .   S
    C65    O322      0.54411      .   S
    C12    O322      0.54411      .   S
    C65    O323      0.70127      .   S
    C64    O323      0.70127      .   S
    C75    O324      0.70359      .   S
    C76    O324      0.70359      .   S
    C75    O325      0.73878      .   S
    C71    O325      0.73878  1_655   S
    C15    O326      0.54522  1_455   S
    C72    O326      0.54522      .   S
    C87    O327      0.54511      .   S
    C24    O327      0.54511      .   S
    C63    O328      0.70166      .   S
    C64    O328      0.70166      .   S
    C63    O329      0.54446      .   S
    C11    O329      0.54446      .   S
    C76    O330      0.54480      .   S
    C18    O330      0.54480      .   S
    C64    O331      0.74310      .   S
    C67    O331      0.74310      .   S
    C72    O332      0.70301      .   S
    C71    O332      0.70301      .   S
    C72    O333      0.69749      .   S
    C73    O333      0.69749      .   S
    C71    O334      0.70071      .   S
    C70    O334      0.70071      .   S
    C16    O335      0.54519      .   S
    C73    O335      0.54519      .   S
    C73    O336      0.69679      .   S
    C74    O336      0.69679      .   S
    C70    O337      0.54426      .   S
    C14    O337      0.54426      .   S
    C70    O338      0.69951      .   S
    C69    O338      0.69951      .   S
    C67    O339      0.64109      .   S
    C141   O339      0.64109      .   S
    C67    O340      0.64085      .   S
    C140   O340      0.64085      .   S
    C141   O341      0.98345      .   S
    C0     O341      0.98345      .   S
    C74    O342      0.70158      .   S
    C69    O342      0.70158      .   S
    C74    O343      0.54421      .   S
    C17    O343      0.54421      .   S
    C69    O344      0.74587      .   S
    C68    O344      0.74587      .   S
    C142   O345      0.64096      .   S
    C68    O345      0.64096      .   S
    C142   O346      0.99011      .   S
    C0     O346      0.99011      .   S
    C68    O347      0.63964      .   S
    C143   O347      0.63964      .   S
    C0     O348      1.22189      .   S
    C3     O348      1.22189  1_554   S
    C1     O349      1.22161      .   S
    C4     O349      1.22161  1_545   S
    C2     O350      1.22188  1_655   S
    C5     O350      1.22188      .   S
