# CIF file generated by openbabel 2.4.90, see http://openbabel.sf.net
data_I
_chemical_name_common ''
_cell_length_a 14.297
_cell_length_b 18.902
_cell_length_c 18.901
_cell_angle_alpha 66.133
_cell_angle_beta 75.395
_cell_angle_gamma 104.605
_space_group_name_H-M_alt 'P 1'
_space_group_name_Hall 'P 1'
loop_
    _symmetry_equiv_pos_as_xyz
    x,y,z
loop_
    _atom_site_label
    _atom_site_type_symbol
    _atom_site_fract_x
    _atom_site_fract_y
    _atom_site_fract_z
    _atom_site_occupancy
    Zr0     Zr   0.54950   0.57381   0.97706   1.000
    Zr1     Zr   0.52638   0.97703   0.44904   1.000
    Zr2     Zr   0.97554   0.44906   0.57381   1.000
    Zr3     Zr   0.45057   0.42619   0.02291   1.000
    Zr4     Zr   0.47379   0.02296   0.55080   1.000
    Zr5     Zr   0.02447   0.55089   0.42616   1.000
    O6      O    0.50004   0.50000   0.99998   1.000
    O7      O    0.50009   1.00000   0.49992   1.000
    O8      O    0.00000   0.49998   0.49998   1.000
    N9      N    0.76640   0.76348   0.62419   1.000
    O10     O    0.66551   0.85716   0.55288   1.000
    O11     O    0.64031   0.87964   0.60179   1.000
    O12     O    0.88125   0.67428   0.53501   1.000
    O13     O    0.85757   0.62498   0.60635   1.000
    N14     N    0.39050   0.62428   0.61226   1.000
    O15     O    0.21839   0.55293   0.58986   1.000
    O16     O    0.24204   0.60194   0.51844   1.000
    O17     O    0.41608   0.53511   0.79070   1.000
    O18     O    0.46396   0.60643   0.76858   1.000
    N19     N    0.00291   0.61229   0.76337   1.000
    O20     O    0.80840   0.58989   0.85711   1.000
    O21     O    0.76053   0.51851   0.87944   1.000
    O22     O    0.20709   0.79068   0.67414   1.000
    O23     O    0.23256   0.76858   0.62487   1.000
    N24     N    0.60952   0.37569   0.38771   1.000
    O25     O    0.78161   0.44703   0.41012   1.000
    O26     O    0.75796   0.39802   0.48154   1.000
    O27     O    0.58390   0.46488   0.20930   1.000
    O28     O    0.53615   0.39355   0.23136   1.000
    N29     N    0.23363   0.23647   0.37576   1.000
    O30     O    0.33464   0.14284   0.44701   1.000
    O31     O    0.35975   0.12031   0.39809   1.000
    O32     O    0.11877   0.32568   0.46495   1.000
    O33     O    0.14245   0.37497   0.39360   1.000
    N34     N    0.99721   0.38774   0.23650   1.000
    O35     O    0.19171   0.41010   0.14287   1.000
    O36     O    0.23956   0.48151   0.12041   1.000
    O37     O    0.79305   0.20934   0.32571   1.000
    O38     O    0.76761   0.23142   0.37495   1.000
loop_
    _geom_bond_atom_site_label_1
    _geom_bond_atom_site_label_2
    _geom_bond_distance
    _geom_bond_site_symmetry_2
    _ccdc_geom_bond_type
    Zr0    O6        1.22189      .   S
    Zr3    O6        1.22189  1_554   S
    Zr1    O7        1.22161      .   S
    Zr4    O7        1.22161  1_545   S
    Zr2    O8        1.22188  1_655   S
    Zr5    O8        1.22188      .   S
    N9     O10       2.71485      .   S
    Zr1    O10       3.68580      .   S
    N9     O11       3.14298      .   S
    Zr4    O11       4.02904  1_545   S
    N9     O12       3.26812      .   S
    Zr5    O12       4.24631  1_455   S
    N9     O13       3.29839      .   S
    Zr2    O13       4.27085      .   S
    N14    O15       2.71418      .   S
    Zr2    O15       3.68472  1_655   S
    N14    O16       3.14316      .   S
    Zr5    O16       4.02914      .   S
    N14    O17       3.26834      .   S
    Zr3    O17       4.24703  1_554   S
    N14    O18       3.29906      .   S
    Zr0    O18       4.27174      .   S
    N19    O20       2.71407  1_455   S
    Zr0    O20       3.68452      .   S
    N19    O21       3.14398  1_455   S
    Zr3    O21       4.03071  1_554   S
    N19    O22       3.26909      .   S
    Zr4    O22       4.24771  1_545   S
    N19    O23       3.29793      .   S
    Zr1    O23       4.26991      .   S
    N24    O25       2.71395      .   S
    Zr5    O25       3.68465  1_455   S
    N24    O26       3.14315      .   S
    Zr2    O26       4.02891      .   S
    N24    O27       3.26826      .   S
    Zr0    O27       4.24680  1_556   S
    N24    O28       3.29877      .   S
    Zr3    O28       4.27152      .   S
    N29    O30       2.71516      .   S
    Zr4    O30       3.68588      .   S
    N29    O31       3.14340      .   S
    Zr1    O31       4.02959  1_565   S
    N29    O32       3.26834      .   S
    Zr2    O32       4.24656  1_655   S
    N29    O33       3.29859      .   S
    Zr5    O33       4.27106      .   S
    N34    O35       2.71358  1_655   S
    Zr3    O35       3.68425      .   S
    N34    O36       3.14374  1_655   S
    Zr0    O36       4.03019  1_556   S
    N34    O37       3.26915      .   S
    Zr1    O37       4.24769  1_565   S
    N34    O38       3.29753      .   S
    Zr4    O38       4.26990      .   S
