# CIF file generated by openbabel 2.4.90, see http://openbabel.sf.net
data_I
_chemical_name_common ''
_cell_length_a 14.297
_cell_length_b 18.902
_cell_length_c 18.901
_cell_angle_alpha 66.133
_cell_angle_beta 75.395
_cell_angle_gamma 104.605
_space_group_name_H-M_alt 'P 1'
_space_group_name_Hall 'P 1'
loop_
    _symmetry_equiv_pos_as_xyz
    x,y,z
loop_
    _atom_site_label
    _atom_site_type_symbol
    _atom_site_fract_x
    _atom_site_fract_y
    _atom_site_fract_z
    _atom_site_occupancy
    N0      N    0.76640   0.76348   0.62419   1.000
    N1      N    0.39050   0.62428   0.61226   1.000
    N2      N    0.00291   0.61229   0.76337   1.000
    N3      N    0.60952   0.37569   0.38771   1.000
    N4      N    0.23363   0.23647   0.37576   1.000
    N5      N    0.99721   0.38774   0.23650   1.000
    Zr6     Zr   0.50009   1.00000   0.49992   1.000
    O7      O    0.58280   0.92858   0.52640   1.000
    O8      O    0.36633   0.88429   0.56240   1.000
    O9      O    0.42992   0.06015   0.44900   1.000
    O10     O    0.64657   0.10467   0.41281   1.000
    O11     O    0.35359   0.89534   0.58703   1.000
    O12     O    0.41736   0.07142   0.47347   1.000
    O13     O    0.63385   0.11571   0.43744   1.000
    O14     O    0.57020   0.93982   0.55086   1.000
    Zr15    Zr   0.50004   0.50000   0.99998   1.000
    O16     O    0.48200   0.55322   0.88428   1.000
    O17     O    0.65422   0.54494   0.92855   1.000
    O18     O    0.54197   0.48244   0.10464   1.000
    O19     O    0.36980   0.49076   0.06020   1.000
    O20     O    0.45806   0.51755   0.89534   1.000
    O21     O    0.63028   0.50925   0.93971   1.000
    O22     O    0.51810   0.44677   0.11567   1.000
    O23     O    0.34587   0.45505   0.07143   1.000
    Zr24    Zr   0.00000   0.49998   0.49998   1.000
    O25     O    0.12102   0.55096   0.50921   1.000
    O26     O    0.89081   0.47350   0.45505   1.000
    O27     O    0.07123   0.43747   0.44679   1.000
    O28     O    0.94063   0.58713   0.51750   1.000
    O29     O    0.92878   0.56248   0.55317   1.000
    O30     O    0.10920   0.52645   0.54492   1.000
    O31     O    0.87898   0.44900   0.49076   1.000
    O32     O    0.05938   0.41283   0.48247   1.000
loop_
    _geom_bond_atom_site_label_1
    _geom_bond_atom_site_label_2
    _geom_bond_distance
    _geom_bond_site_symmetry_2
    _ccdc_geom_bond_type
    Zr6    O7        2.00695      .   S
    N0     O7        4.68574      .   S
    Zr6    O8        2.12064      .   S
    N2     O8        5.35069      .   S
    Zr6    O9        1.84449  1_565   S
    N4     O9        4.88279      .   S
    Zr6    O10       2.13225  1_565   S
    N5     O10       5.33710      .   S
    Zr6    O11       2.13234      .   S
    N2     O11       5.33717      .   S
    Zr6    O12       2.00714  1_565   S
    N4     O12       4.68623      .   S
    Zr6    O13       2.12058  1_565   S
    N5     O13       5.35046      .   S
    Zr6    O14       1.84423      .   S
    N0     O14       4.88230      .   S
    Zr15   O16       2.12039      .   S
    N1     O16       5.35165      .   S
    Zr15   O17       2.00753      .   S
    N2     O17       4.68553  1_455   S
    Zr15   O18       2.13301  1_556   S
    N3     O18       5.33688      .   S
    Zr15   O19       1.84373  1_556   S
    N5     O19       4.88245  1_655   S
    Zr15   O20       2.13315      .   S
    N1     O20       5.33714      .   S
    Zr15   O21       1.84402      .   S
    N2     O21       4.88294  1_455   S
    Zr15   O22       2.12030  1_556   S
    N3     O22       5.35131      .   S
    Zr15   O23       2.00739  1_556   S
    N5     O23       4.68490  1_655   S
    Zr24   O25       1.84393      .   S
    N1     O25       4.88191      .   S
    Zr24   O26       2.00685  1_455   S
    N3     O26       4.68474      .   S
    Zr24   O27       2.12013      .   S
    N4     O27       5.35104      .   S
    Zr24   O28       2.13274  1_455   S
    N0     O28       5.33635      .   S
    Zr24   O29       2.11999  1_455   S
    N0     O29       5.35072      .   S
    Zr24   O30       2.00689      .   S
    N1     O30       4.68499      .   S
    Zr24   O31       1.84384  1_455   S
    N3     O31       4.88174      .   S
    Zr24   O32       2.13283      .   S
    N4     O32       5.33669      .   S
