# CIF file generated by openbabel 2.4.90, see http://openbabel.sf.net
data_I
_chemical_name_common ''
_cell_length_a 14.575
_cell_length_b 14.7
_cell_length_c 26.013
_cell_angle_alpha 90.15
_cell_angle_beta 90.408
_cell_angle_gamma 90.188
_space_group_name_H-M_alt 'P 1'
_space_group_name_Hall 'P 1'
loop_
    _symmetry_equiv_pos_as_xyz
    x,y,z
loop_
    _atom_site_label
    _atom_site_type_symbol
    _atom_site_fract_x
    _atom_site_fract_y
    _atom_site_fract_z
    _atom_site_occupancy
    H0      H    0.73650   0.94892   0.53591   1.000
    H1      H    0.75001   0.82872   0.46815   1.000
    H2      H    0.71555   0.75395   0.65079   1.000
    H3      H    0.28127   0.62015   0.24295   1.000
    H4      H    0.42339   0.65593   0.19414   1.000
    H5      H    0.43279   0.52833   0.36852   1.000
    H6      H    0.76662   0.42609   0.31120   1.000
    H7      H    0.89519   0.32646   0.28154   1.000
    H8      H    0.04393   0.32961   0.33220   1.000
    H9      H    0.05354   0.42271   0.41216   1.000
    H10     H    0.91459   0.51310   0.43919   1.000
    H11     H    0.75872   0.04933   0.03641   1.000
    H12     H    0.74547   0.16779   0.96798   1.000
    H13     H    0.78109   0.24697   0.15047   1.000
    H14     H    0.21722   0.37950   0.74364   1.000
    H15     H    0.07414   0.34555   0.69403   1.000
    H16     H    0.06802   0.46512   0.87054   1.000
    H17     H    0.73919   0.57113   0.81152   1.000
    H18     H    0.61398   0.67454   0.78025   1.000
    H19     H    0.46416   0.67483   0.82820   1.000
    H20     H    0.44885   0.58010   0.90692   1.000
    H21     H    0.58475   0.48632   0.93608   1.000
    H22     H    0.26276   0.44600   0.96420   1.000
    H23     H    0.24879   0.32718   0.03242   1.000
    H24     H    0.28555   0.24874   0.85020   1.000
    H25     H    0.71678   0.11919   0.25641   1.000
    H26     H    0.57457   0.15380   0.30548   1.000
    H27     H    0.56500   0.02756   0.13038   1.000
    H28     H    0.23004   0.92590   0.18863   1.000
    H29     H    0.10212   0.82461   0.21790   1.000
    H30     H    0.95338   0.82597   0.16715   1.000
    H31     H    0.94324   0.91929   0.08761   1.000
    H32     H    0.08173   0.01111   0.06086   1.000
    H33     H    0.23573   0.54988   0.46274   1.000
    H34     H    0.24842   0.66856   0.53150   1.000
    H35     H    0.21662   0.74731   0.34902   1.000
    H36     H    0.78250   0.87872   0.75627   1.000
    H37     H    0.92524   0.84124   0.80503   1.000
    H38     H    0.93242   0.97006   0.63096   1.000
    H39     H    0.26598   0.07015   0.68937   1.000
    H40     H    0.39379   0.17195   0.71978   1.000
    H41     H    0.54223   0.17101   0.67009   1.000
    H42     H    0.55257   0.07746   0.59046   1.000
    H43     H    0.41431   0.98495   0.56254   1.000
    H44     H    0.26138   0.05128   0.46385   1.000
    H45     H    0.24646   0.17137   0.53153   1.000
    H46     H    0.28382   0.24630   0.34909   1.000
    H47     H    0.71707   0.37781   0.75649   1.000
    H48     H    0.57519   0.33996   0.80509   1.000
    H49     H    0.56474   0.47263   0.63195   1.000
    H50     H    0.23372   0.57478   0.68800   1.000
    H51     H    0.10565   0.67440   0.71870   1.000
    H52     H    0.95590   0.67086   0.66907   1.000
    H53     H    0.94450   0.57728   0.58940   1.000
    H54     H    0.08304   0.48687   0.56153   1.000
    H55     H    0.24200   0.94640   0.96330   1.000
    H56     H    0.25523   0.82812   0.03189   1.000
    H57     H    0.21874   0.74855   0.84948   1.000
    H58     H    0.78219   0.61917   0.25593   1.000
    H59     H    0.92563   0.65571   0.30477   1.000
    H60     H    0.93073   0.52937   0.12900   1.000
    H61     H    0.25911   0.42452   0.18836   1.000
    H62     H    0.38404   0.32129   0.22029   1.000
    H63     H    0.53468   0.32145   0.17324   1.000
    H64     H    0.55142   0.41662   0.09480   1.000
    H65     H    0.41596   0.51042   0.06498   1.000
    H66     H    0.73680   0.54972   0.03597   1.000
    H67     H    0.75191   0.66907   0.96815   1.000
    H68     H    0.71358   0.74607   0.15044   1.000
    H69     H    0.28301   0.87814   0.74330   1.000
    H70     H    0.42505   0.84340   0.69414   1.000
    H71     H    0.43512   0.96763   0.86970   1.000
    H72     H    0.76580   0.07175   0.81205   1.000
    H73     H    0.89214   0.17439   0.78187   1.000
    H74     H    0.04245   0.17310   0.83080   1.000
    H75     H    0.05652   0.07789   0.90949   1.000
    H76     H    0.91949   0.98488   0.93748   1.000
    H77     H    0.75977   0.44956   0.53684   1.000
    H78     H    0.74700   0.32976   0.46867   1.000
    H79     H    0.78106   0.25395   0.65145   1.000
    H80     H    0.21750   0.11844   0.24329   1.000
    H81     H    0.07468   0.15482   0.19429   1.000
    H82     H    0.06774   0.03037   0.36939   1.000
    H83     H    0.73873   0.92721   0.31144   1.000
    C84     C    0.24040   0.87428   0.95300   1.000
    C85     C    0.24815   0.80825   0.99171   1.000
    C86     C    0.24772   0.71609   0.97820   1.000
    C87     C    0.23732   0.69295   0.92605   1.000
    H88     H    0.61250   0.82445   0.27966   1.000
    H89     H    0.46191   0.82596   0.32690   1.000
    H90     H    0.44688   0.92149   0.40551   1.000
    H91     H    0.58373   0.01472   0.43522   1.000
    C92     C    0.73541   0.87702   0.54577   1.000
    C93     C    0.74329   0.80993   0.50839   1.000
    C94     C    0.74368   0.71813   0.52243   1.000
    C95     C    0.73353   0.69644   0.57465   1.000
    C96     C    0.72553   0.76741   0.60998   1.000
    C97     C    0.34893   0.60825   0.25968   1.000
    C98     C    0.42839   0.62795   0.23280   1.000
    C99     C    0.51440   0.61136   0.25518   1.000
    C100    C    0.51637   0.57626   0.30547   1.000
    C101    C    0.43357   0.55719   0.32995   1.000
    C102    C    0.83102   0.42223   0.33260   1.000
    C103    C    0.90318   0.36816   0.31610   1.000
    C104    C    0.98472   0.36884   0.34462   1.000
    C105    C    0.99052   0.42107   0.38944   1.000
    C106    C    0.91516   0.47211   0.40423   1.000
    C107    C    0.76012   0.12144   0.04590   1.000
    C108    C    0.75237   0.18757   0.00818   1.000
    C109    C    0.75255   0.27973   0.02174   1.000
    C110    C    0.76270   0.30275   0.07393   1.000
    C111    C    0.77077   0.23256   0.10960   1.000
    N112    N    0.72683   0.85582   0.59612   1.000
    N113    N    0.35121   0.57246   0.30766   1.000
    N114    N    0.83674   0.47373   0.37587   1.000
    N115    N    0.76917   0.14382   0.09624   1.000
    N116    N    0.14845   0.42388   0.80909   1.000
    C117    C    0.14987   0.39029   0.76050   1.000
    C118    C    0.06991   0.37166   0.73318   1.000
    C119    C    0.98432   0.38688   0.75575   1.000
    C120    C    0.98326   0.41955   0.80665   1.000
    C121    C    0.06652   0.43774   0.83156   1.000
    C122    C    0.67424   0.57646   0.83179   1.000
    C123    C    0.60409   0.63258   0.81436   1.000
    C124    C    0.52168   0.63362   0.84139   1.000
    C125    C    0.51290   0.58084   0.88563   1.000
    C126    C    0.58645   0.52779   0.90144   1.000
    C127    C    0.26414   0.37390   0.95466   1.000
    C128    C    0.25600   0.30765   0.99227   1.000
    C129    C    0.25606   0.21554   0.97860   1.000
    C130    C    0.26683   0.19253   0.92653   1.000
    C131    C    0.27514   0.26286   0.89094   1.000
    C132    C    0.64903   0.10706   0.23970   1.000
    C133    C    0.56964   0.12603   0.26668   1.000
    C134    C    0.48366   0.10905   0.24419   1.000
    C135    C    0.48139   0.07444   0.19369   1.000
    C136    C    0.56416   0.05611   0.16910   1.000
    C137    C    0.16572   0.92120   0.16716   1.000
    C138    C    0.09387   0.86619   0.18346   1.000
    C139    C    0.01237   0.86593   0.15491   1.000
    C140    C    0.00632   0.91816   0.11027   1.000
    C141    C    0.08141   0.97007   0.09560   1.000
    C142    C    0.23489   0.62196   0.45337   1.000
    C143    C    0.24229   0.68817   0.49131   1.000
    C144    C    0.24285   0.78028   0.47796   1.000
    C145    C    0.23348   0.80330   0.42581   1.000
    C146    C    0.22602   0.73306   0.38985   1.000
    C147    C    0.84994   0.89015   0.73961   1.000
    C148    C    0.92972   0.86947   0.76644   1.000
    C149    C    0.00000   0.88546   0.74414   1.000
    C150    C    0.00000   0.92073   0.69387   1.000
    C151    C    0.93371   0.94087   0.66946   1.000
    C152    C    0.33027   0.07492   0.66840   1.000
    C153    C    0.40199   0.13018   0.68534   1.000
    C154    C    0.48341   0.13067   0.65737   1.000
    C155    C    0.48955   0.07830   0.61269   1.000
    C156    C    0.41460   0.00000   0.59745   1.000
    C157    C    0.26256   0.12319   0.45399   1.000
    C158    C    0.25382   0.19025   0.49133   1.000
    C159    C    0.25340   0.28205   0.47731   1.000
    C160    C    0.26423   0.30377   0.42513   1.000
    C161    C    0.27323   0.23286   0.38985   1.000
    C162    C    0.64928   0.38996   0.73997   1.000
    C163    C    0.56999   0.36912   0.76671   1.000
    C164    C    0.48383   0.38609   0.74459   1.000
    C165    C    0.48141   0.42265   0.69460   1.000
    C166    C    0.56410   0.44276   0.67027   1.000
    C167    C    0.16881   0.57850   0.66736   1.000
    C168    C    0.09699   0.63256   0.68429   1.000
    C169    C    0.01485   0.63162   0.65630   1.000
    C170    C    0.00806   0.57916   0.61163   1.000
    C171    C    0.08310   0.52811   0.59641   1.000
    C172    C    0.22924   0.76301   0.89026   1.000
    C173    C    0.84950   0.60802   0.23909   1.000
    C174    C    0.92958   0.62811   0.26593   1.000
    C175    C    0.00000   0.61227   0.24331   1.000
    C176    C    0.00000   0.57766   0.19281   1.000
    C177    C    0.93258   0.55815   0.16836   1.000
    C178    C    0.32453   0.41953   0.16854   1.000
    C179    C    0.39445   0.36346   0.18632   1.000
    C180    C    0.47738   0.36269   0.15978   1.000
    C181    C    0.48695   0.41572   0.11500   1.000
    C182    C    0.41364   0.46876   0.09954   1.000
    C183    C    0.73553   0.62174   0.04573   1.000
    C184    C    0.74430   0.68832   0.00833   1.000
    C185    C    0.74454   0.78031   0.02225   1.000
    C186    C    0.73324   0.80279   0.07435   1.000
    C187    C    0.72430   0.73221   0.10970   1.000
    C188    C    0.35080   0.88967   0.76010   1.000
    C189    C    0.43011   0.87061   0.73306   1.000
    C190    C    0.51616   0.88683   0.75564   1.000
    C191    C    0.51852   0.92083   0.80627   1.000
    C192    C    0.43586   0.93939   0.83090   1.000
    C193    C    0.83091   0.07640   0.83276   1.000
    C194    C    0.90177   0.13217   0.81595   1.000
    C195    C    0.98431   0.13236   0.84354   1.000
    C196    C    0.99245   0.07922   0.88774   1.000
    C197    C    0.91825   0.00000   0.90291   1.000
    C198    C    0.76101   0.37760   0.54653   1.000
    C199    C    0.75357   0.31076   0.50894   1.000
    C200    C    0.75354   0.21888   0.52278   1.000
    C201    C    0.76353   0.19679   0.57501   1.000
    C202    C    0.77106   0.26756   0.61059   1.000
    C203    C    0.15007   0.10761   0.26009   1.000
    C204    C    0.07027   0.12766   0.23310   1.000
    C205    C    0.98460   0.11231   0.25563   1.000
    C206    C    0.98329   0.07834   0.30617   1.000
    C207    C    0.06639   0.05873   0.33070   1.000
    C208    C    0.67339   0.92271   0.33139   1.000
    C209    C    0.60267   0.86694   0.31367   1.000
    C210    C    0.51984   0.86688   0.34031   1.000
    C211    C    0.51121   0.92024   0.38447   1.000
    C212    C    0.58527   0.97291   0.40050   1.000
    N213    N    0.66576   0.52467   0.87456   1.000
    N214    N    0.27336   0.35153   0.90447   1.000
    N215    N    0.64649   0.07156   0.19150   1.000
    N216    N    0.15974   0.97262   0.12409   1.000
    N217    N    0.22705   0.64434   0.40300   1.000
    N218    N    0.85167   0.92638   0.69170   1.000
    N219    N    0.33629   0.00000   0.62526   1.000
    N220    N    0.27209   0.14446   0.40371   1.000
    N221    N    0.64659   0.42722   0.69236   1.000
    N222    N    0.16208   0.52677   0.62426   1.000
    N223    N    0.23108   0.85175   0.90364   1.000
    N224    N    0.85082   0.57251   0.19096   1.000
    N225    N    0.33378   0.47157   0.12590   1.000
    N226    N    0.72590   0.64364   0.09597   1.000
    N227    N    0.35346   0.92462   0.80837   1.000
    N228    N    0.83885   0.00000   0.87544   1.000
    N229    N    0.76949   0.35602   0.59688   1.000
    N230    N    0.14839   0.07259   0.30824   1.000
    N231    N    0.66504   0.97512   0.37400   1.000
loop_
    _geom_bond_atom_site_label_1
    _geom_bond_atom_site_label_2
    _geom_bond_distance
    _geom_bond_site_symmetry_2
    _ccdc_geom_bond_type
    C108   C109      1.39896      .   S
    C108   C107      1.38737      .   S
    C108   H12       1.08854  1_554   S
    C184   C185      1.39892      .   S
    C184   C183      1.38809      .   S
    C184   H67       1.08863  1_554   S
    C109   C110      1.40497      .   S
    C185   C186      1.40510      .   S
    H56    C85       1.08861  1_554   S
    H23    C128      1.08833  1_554   S
    H66    C183      1.08827      .   S
    H11    C107      1.08776      .   S
    C183   N226      1.35350      .   S
    C107   N115      1.35479      .   S
    H32    C141      1.08786  1_545   S
    H65    C182      1.08978      .   S
    C110   C111      1.39407      .   S
    C186   C187      1.39465      .   S
    H31    C140      1.08876  1_655   S
    H64    C181      1.07989      .   S
    C141   C140      1.38848      .   S
    C141   N216      1.35712      .   S
    N226   C187      1.34950      .   S
    N115   C111      1.34920      .   S
    C182   C181      1.38289      .   S
    C182   N225      1.35576      .   S
    C111   H13       1.09274      .   S
    C187   H68       1.09111      .   S
    C140   C139      1.39622      .   S
    C181   C180      1.41087      .   S
    N216   C137      1.35563      .   S
    N225   C178      1.35633      .   S
    H60    C177      1.10694      .   S
    H27    C136      1.09032      .   S
    C139   H30       1.08964  1_455   S
    C139   C138      1.39639      .   S
    C180   H63       1.08990      .   S
    C180   C179      1.39630      .   S
    C137   C138      1.39024      .   S
    C137   H28       1.08972      .   S
    C177   N224      1.34959      .   S
    C177   C176      1.20022  1_655   S
    C178   C179      1.39016      .   S
    C178   H61       1.08976      .   S
    C136   N215      1.34861      .   S
    C136   C135      1.39611      .   S
    C138   H29       1.09208      .   S
    C179   H62       1.09193      .   S
    N224   C173      1.35549      .   S
    N215   C132      1.35701      .   S
    C176   C175      1.40745      .   S
    C135   C134      1.40767      .   S
    H4     C98       1.08957      .   S
    H81    C204      1.08889      .   S
    C98    C99       1.40083      .   S
    C98    C97       1.38727      .   S
    C204   C205      1.40104  1_455   S
    C204   C203      1.38720      .   S
    C173   H58       1.09006      .   S
    C173   C174      1.38631      .   S
    C132   H25       1.09005      .   S
    C132   C133      1.38634      .   S
    H3     C97       1.08987      .   S
    H80    C203      1.08974      .   S
    C175   C174      1.20973  1_455   S
    C134   C133      1.40063      .   S
    C99    C100      1.40766      .   S
    C205   C206      1.40777      .   S
    C97    N113      1.35598      .   S
    C203   N230      1.35577      .   S
    C174   H59       1.08971      .   S
    C133   H26       1.08955      .   S
    H88    C209      1.09217      .   S
    H7     C103      1.09213      .   S
    C100   C101      1.39656      .   S
    C206   C207      1.39620  1_655   S
    N113   C101      1.34903      .   S
    N230   C207      1.34909      .   S
    H6     C102      1.08960      .   S
    H83    C208      1.08975      .   S
    C209   C208      1.39018      .   S
    C209   C210      1.39629      .   S
    C103   C102      1.39004      .   S
    C103   C104      1.39654      .   S
    H89    C210      1.08988      .   S
    C101   H5        1.09048      .   S
    C207   H82       1.09048      .   S
    C208   N231      1.35456      .   S
    H8     C104      1.08993  1_455   S
    C102   N114      1.35673      .   S
    C210   C211      1.39596      .   S
    C104   C105      1.39622      .   S
    H35    C146      1.09088      .   S
    H46    C161      1.09102      .   S
    N231   C212      1.35615      .   S
    N114   C106      1.35634      .   S
    C211   C212      1.38757      .   S
    C211   H90       1.08911      .   S
    C105   C106      1.38822      .   S
    C105   H9        1.08888  1_655   S
    C146   N217      1.34923      .   S
    C146   C145      1.39492      .   S
    C161   N220      1.34953      .   S
    C161   C160      1.39414      .   S
    C212   H91       1.09152  1_565   S
    N217   C142      1.35590      .   S
    N220   C157      1.35356      .   S
    C106   H10       1.08970      .   S
    C160   C159      1.40509      .   S
    C145   C144      1.40481      .   S
    C142   H33       1.08804      .   S
    C142   C143      1.38767      .   S
    C157   H44       1.08851      .   S
    C157   C158      1.38881      .   S
    H1     C93       1.08829      .   S
    H78    C199      1.08850      .   S
    C159   C158      1.39886      .   S
    C144   C143      1.39882      .   S
    C143   H34       1.08836      .   S
    C158   H45       1.08856      .   S
    C93    C94       1.39895      .   S
    C93    C92       1.38879      .   S
    C199   C200      1.39875      .   S
    C199   C198      1.38783      .   S
    C94    C95       1.40483      .   S
    C200   C201      1.40440      .   S
    H0     C92       1.08834      .   S
    H77    C198      1.08821      .   S
    C92    N112      1.35369      .   S
    C198   N229      1.35332      .   S
    H54    C171      1.08989      .   S
    H43    C156      0.93408  1_565   S
    C95    C96       1.39419      .   S
    C201   C202      1.39410      .   S
    H53    C170      1.08880  1_655   S
    H42    C155      1.08900      .   S
    N112   C96       1.34971      .   S
    C171   C170      1.38788      .   S
    C171   N222      1.35603      .   S
    N229   C202      1.34953      .   S
    C156   C155      1.63046      .   S
    C156   N219      1.35569      .   S
    C96    H2        1.09105      .   S
    C202   H79       1.09092      .   S
    C170   C169      1.39561      .   S
    C155   C154      1.39599      .   S
    N222   C167      1.35584      .   S
    N219   C152      1.57336      .   S
    H38    C151      1.09064      .   S
    H49    C166      1.09039      .   S
    C169   H52       1.08976  1_455   S
    C169   C168      1.39680      .   S
    C154   H41       1.08980      .   S
    C154   C153      1.39637      .   S
    C167   C168      1.38990      .   S
    C167   H50       1.08604      .   S
    C152   C153      1.39025      .   S
    C152   H39       1.08974      .   S
    C151   N218      1.34862      .   S
    C151   C150      1.19105  1_655   S
    C166   N221      1.34928      .   S
    C166   C165      1.39634      .   S
    C168   H51       1.09105      .   S
    C153   H40       1.09229      .   S
    N218   C147      1.35697      .   S
    N221   C162      1.35588      .   S
    C150   C149      1.40796      .   S
    H15    C118      1.08964      .   S
    H70    C189      1.08952      .   S
    C165   C164      1.40864      .   S
    C189   C190      1.40052      .   S
    C189   C188      1.38644      .   S
    C118   C119      1.40086  1_455   S
    C118   C117      1.38686      .   S
    C147   H36       1.08978      .   S
    C147   C148      1.38687      .   S
    C162   H47       1.09007      .   S
    C162   C163      1.38689      .   S
    H69    C188      1.09009      .   S
    H14    C117      1.08991      .   S
    C149   C148      1.20356  1_455   S
    C164   C163      1.40101      .   S
    C190   C191      1.40762      .   S
    C119   C120      1.40748      .   S
    C188   N227      1.35567      .   S
    C117   N116      1.35612      .   S
    C148   H37       1.08953      .   S
    C163   H48       1.08979      .   S
    H18    C123      1.09210      .   S
    H73    C194      1.09205      .   S
    C191   C192      1.39604      .   S
    C120   C121      1.39634  1_655   S
    N227   C192      1.34925      .   S
    N116   C121      1.34912      .   S
    H17    C122      1.08973      .   S
    H72    C193      1.08971      .   S
    C123   C122      1.39017      .   S
    C123   C124      1.39624      .   S
    C194   C193      1.39021      .   S
    C194   C195      1.39632      .   S
    H19    C124      1.08988      .   S
    H74    C195      1.09014  1_455   S
    C192   H71       1.09046      .   S
    C121   H16       1.09004      .   S
    C122   N213      1.35588      .   S
    C193   N228      1.58524      .   S
    C124   C125      1.39601      .   S
    C195   C196      1.39630      .   S
    H57    C172      1.09099      .   S
    H24    C131      1.09113      .   S
    N213   C126      1.35608      .   S
    N228   C197      1.35571      .   S
    C125   C126      1.38825      .   S
    C125   H20       1.08886      .   S
    C196   C197      1.63763      .   S
    C196   H75       1.08868  1_655   S
    C172   N223      1.34942      .   S
    C172   C87       1.39486      .   S
    C131   N214      1.34953      .   S
    C131   C130      1.39521      .   S
    C126   H21       1.08960      .   S
    C197   H76       0.92696  1_545   S
    N223   C84       1.33107      .   S
    N214   C127      1.35326      .   S
    C87    C86       1.40476      .   S
    C130   C129      1.40522      .   S
    C84    H55       1.09294      .   S
    C84    C85       1.40464      .   S
    C127   H22       1.08827      .   S
    C127   C128      1.38761      .   S
    C86    C85       1.39876      .   S
    C129   C128      1.39904      .   S
