# CIF file generated by openbabel 2.4.90, see http://openbabel.sf.net
data_I
_chemical_name_common ''
_cell_length_a 14.575
_cell_length_b 14.7
_cell_length_c 26.013
_cell_angle_alpha 90.15
_cell_angle_beta 90.408
_cell_angle_gamma 90.188
_space_group_name_H-M_alt 'P 1'
_space_group_name_Hall 'P 1'
loop_
    _symmetry_equiv_pos_as_xyz
    x,y,z
loop_
    _atom_site_label
    _atom_site_type_symbol
    _atom_site_fract_x
    _atom_site_fract_y
    _atom_site_fract_z
    _atom_site_occupancy
    H0      H    0.73650   0.94892   0.53591   1.000
    H1      H    0.75001   0.82872   0.46815   1.000
    H2      H    0.71555   0.75395   0.65079   1.000
    H3      H    0.28127   0.62015   0.24295   1.000
    H4      H    0.42339   0.65593   0.19414   1.000
    H5      H    0.43279   0.52833   0.36852   1.000
    H6      H    0.75872   0.04933   0.03641   1.000
    H7      H    0.74547   0.16779   0.96798   1.000
    H8      H    0.78109   0.24697   0.15047   1.000
    H9      H    0.21722   0.37950   0.74364   1.000
    H10     H    0.07414   0.34555   0.69403   1.000
    H11     H    0.06802   0.46512   0.87054   1.000
    H12     H    0.26276   0.44600   0.96420   1.000
    H13     H    0.24879   0.32718   0.03242   1.000
    H14     H    0.28555   0.24874   0.85020   1.000
    H15     H    0.71678   0.11919   0.25641   1.000
    H16     H    0.57457   0.15380   0.30548   1.000
    H17     H    0.56500   0.02756   0.13038   1.000
    H18     H    0.23573   0.54988   0.46274   1.000
    H19     H    0.24842   0.66856   0.53150   1.000
    H20     H    0.21662   0.74731   0.34902   1.000
    H21     H    0.78250   0.87872   0.75627   1.000
    H22     H    0.92524   0.84124   0.80503   1.000
    H23     H    0.93242   0.97006   0.63096   1.000
    H24     H    0.26138   0.05128   0.46385   1.000
    H25     H    0.24646   0.17137   0.53153   1.000
    H26     H    0.28382   0.24630   0.34909   1.000
    H27     H    0.71707   0.37781   0.75649   1.000
    H28     H    0.57519   0.33996   0.80509   1.000
    H29     H    0.56474   0.47263   0.63195   1.000
    H30     H    0.24200   0.94640   0.96330   1.000
    H31     H    0.25523   0.82812   0.03189   1.000
    H32     H    0.21874   0.74855   0.84948   1.000
    H33     H    0.78219   0.61917   0.25593   1.000
    H34     H    0.92563   0.65571   0.30477   1.000
    H35     H    0.93073   0.52937   0.12900   1.000
    H36     H    0.73680   0.54972   0.03597   1.000
    H37     H    0.75191   0.66907   0.96815   1.000
    H38     H    0.71358   0.74607   0.15044   1.000
    H39     H    0.28301   0.87814   0.74330   1.000
    H40     H    0.42505   0.84340   0.69414   1.000
    H41     H    0.43512   0.96763   0.86970   1.000
    H42     H    0.75977   0.44956   0.53684   1.000
    H43     H    0.74700   0.32976   0.46867   1.000
    H44     H    0.78106   0.25395   0.65145   1.000
    H45     H    0.21750   0.11844   0.24329   1.000
    H46     H    0.07468   0.15482   0.19429   1.000
    H47     H    0.06774   0.03037   0.36939   1.000
    C48     C    0.24040   0.87428   0.95300   1.000
    C49     C    0.24815   0.80825   0.99171   1.000
    C50     C    0.24772   0.71609   0.97820   1.000
    C51     C    0.23732   0.69295   0.92605   1.000
    C52     C    0.73541   0.87702   0.54577   1.000
    C53     C    0.74329   0.80993   0.50839   1.000
    C54     C    0.74368   0.71813   0.52243   1.000
    C55     C    0.73353   0.69644   0.57465   1.000
    C56     C    0.72553   0.76741   0.60998   1.000
    C57     C    0.34893   0.60825   0.25968   1.000
    C58     C    0.42839   0.62795   0.23280   1.000
    C59     C    0.51440   0.61136   0.25518   1.000
    C60     C    0.51637   0.57626   0.30547   1.000
    C61     C    0.43357   0.55719   0.32995   1.000
    C62     C    0.76012   0.12144   0.04590   1.000
    C63     C    0.75237   0.18757   0.00818   1.000
    C64     C    0.75255   0.27973   0.02174   1.000
    C65     C    0.76270   0.30275   0.07393   1.000
    C66     C    0.77077   0.23256   0.10960   1.000
    N67     N    0.72683   0.85582   0.59612   1.000
    N68     N    0.35121   0.57246   0.30766   1.000
    N69     N    0.76917   0.14382   0.09624   1.000
    N70     N    0.14845   0.42388   0.80909   1.000
    C71     C    0.14987   0.39029   0.76050   1.000
    C72     C    0.06991   0.37166   0.73318   1.000
    C73     C    0.98432   0.38688   0.75575   1.000
    C74     C    0.98326   0.41955   0.80665   1.000
    C75     C    0.06652   0.43774   0.83156   1.000
    C76     C    0.26414   0.37390   0.95466   1.000
    C77     C    0.25600   0.30765   0.99227   1.000
    C78     C    0.25606   0.21554   0.97860   1.000
    C79     C    0.26683   0.19253   0.92653   1.000
    C80     C    0.27514   0.26286   0.89094   1.000
    C81     C    0.64903   0.10706   0.23970   1.000
    C82     C    0.56964   0.12603   0.26668   1.000
    C83     C    0.48366   0.10905   0.24419   1.000
    C84     C    0.48139   0.07444   0.19369   1.000
    C85     C    0.56416   0.05611   0.16910   1.000
    C86     C    0.23489   0.62196   0.45337   1.000
    C87     C    0.24229   0.68817   0.49131   1.000
    C88     C    0.24285   0.78028   0.47796   1.000
    C89     C    0.23348   0.80330   0.42581   1.000
    C90     C    0.22602   0.73306   0.38985   1.000
    C91     C    0.84994   0.89015   0.73961   1.000
    C92     C    0.92972   0.86947   0.76644   1.000
    C93     C    0.00000   0.88546   0.74414   1.000
    C94     C    0.00000   0.92073   0.69387   1.000
    C95     C    0.93371   0.94087   0.66946   1.000
    C96     C    0.26256   0.12319   0.45399   1.000
    C97     C    0.25382   0.19025   0.49133   1.000
    C98     C    0.25340   0.28205   0.47731   1.000
    C99     C    0.26423   0.30377   0.42513   1.000
    C100    C    0.27323   0.23286   0.38985   1.000
    C101    C    0.64928   0.38996   0.73997   1.000
    C102    C    0.56999   0.36912   0.76671   1.000
    C103    C    0.48383   0.38609   0.74459   1.000
    C104    C    0.48141   0.42265   0.69460   1.000
    C105    C    0.56410   0.44276   0.67027   1.000
    C106    C    0.22924   0.76301   0.89026   1.000
    C107    C    0.84950   0.60802   0.23909   1.000
    C108    C    0.92958   0.62811   0.26593   1.000
    C109    C    0.00000   0.61227   0.24331   1.000
    C110    C    0.00000   0.57766   0.19281   1.000
    C111    C    0.93258   0.55815   0.16836   1.000
    C112    C    0.73553   0.62174   0.04573   1.000
    C113    C    0.74430   0.68832   0.00833   1.000
    C114    C    0.74454   0.78031   0.02225   1.000
    C115    C    0.73324   0.80279   0.07435   1.000
    C116    C    0.72430   0.73221   0.10970   1.000
    C117    C    0.35080   0.88967   0.76010   1.000
    C118    C    0.43011   0.87061   0.73306   1.000
    C119    C    0.51616   0.88683   0.75564   1.000
    C120    C    0.51852   0.92083   0.80627   1.000
    C121    C    0.43586   0.93939   0.83090   1.000
    C122    C    0.76101   0.37760   0.54653   1.000
    C123    C    0.75357   0.31076   0.50894   1.000
    C124    C    0.75354   0.21888   0.52278   1.000
    C125    C    0.76353   0.19679   0.57501   1.000
    C126    C    0.77106   0.26756   0.61059   1.000
    C127    C    0.15007   0.10761   0.26009   1.000
    C128    C    0.07027   0.12766   0.23310   1.000
    C129    C    0.98460   0.11231   0.25563   1.000
    C130    C    0.98329   0.07834   0.30617   1.000
    C131    C    0.06639   0.05873   0.33070   1.000
    N132    N    0.27336   0.35153   0.90447   1.000
    N133    N    0.64649   0.07156   0.19150   1.000
    N134    N    0.22705   0.64434   0.40300   1.000
    N135    N    0.85167   0.92638   0.69170   1.000
    N136    N    0.27209   0.14446   0.40371   1.000
    N137    N    0.64659   0.42722   0.69236   1.000
    N138    N    0.23108   0.85175   0.90364   1.000
    N139    N    0.85082   0.57251   0.19096   1.000
    N140    N    0.72590   0.64364   0.09597   1.000
    N141    N    0.35346   0.92462   0.80837   1.000
    N142    N    0.76949   0.35602   0.59688   1.000
    N143    N    0.14839   0.07259   0.30824   1.000
loop_
    _geom_bond_atom_site_label_1
    _geom_bond_atom_site_label_2
    _geom_bond_distance
    _geom_bond_site_symmetry_2
    _ccdc_geom_bond_type
    C63    C64       1.39896      .   S
    C63    C62       1.38737      .   S
    C63    H7        1.08854  1_554   S
    C113   C114      1.39892      .   S
    C113   C112      1.38809      .   S
    C113   H37       1.08863  1_554   S
    C64    C65       1.40497      .   S
    C114   C115      1.40510      .   S
    H31    C49       1.08861  1_554   S
    H13    C77       1.08833  1_554   S
    H36    C112      1.08827      .   S
    H6     C62       1.08776      .   S
    C112   N140      1.35350      .   S
    C62    N69       1.35479      .   S
    C65    C66       1.39407      .   S
    C115   C116      1.39465      .   S
    N140   C116      1.34950      .   S
    N69    C66       1.34920      .   S
    C66    H8        1.09274      .   S
    C116   H38       1.09111      .   S
    H35    C111      1.10694      .   S
    H17    C85       1.09032      .   S
    C111   N139      1.34959      .   S
    C111   C110      1.20022  1_655   S
    C85    N133      1.34861      .   S
    C85    C84       1.39611      .   S
    N139   C107      1.35549      .   S
    N133   C81       1.35701      .   S
    C110   C109      1.40745      .   S
    C84    C83       1.40767      .   S
    H4     C58       1.08957      .   S
    H46    C128      1.08889      .   S
    C58    C59       1.40083      .   S
    C58    C57       1.38727      .   S
    C128   C129      1.40104  1_455   S
    C128   C127      1.38720      .   S
    C107   H33       1.09006      .   S
    C107   C108      1.38631      .   S
    C81    H15       1.09005      .   S
    C81    C82       1.38634      .   S
    H3     C57       1.08987      .   S
    H45    C127      1.08974      .   S
    C109   C108      1.20973  1_455   S
    C83    C82       1.40063      .   S
    C59    C60       1.40766      .   S
    C129   C130      1.40777      .   S
    C57    N68       1.35598      .   S
    C127   N143      1.35577      .   S
    C108   H34       1.08971      .   S
    C82    H16       1.08955      .   S
    C60    C61       1.39656      .   S
    C130   C131      1.39620  1_655   S
    N68    C61       1.34903      .   S
    N143   C131      1.34909      .   S
    C61    H5        1.09048      .   S
    C131   H47       1.09048      .   S
    H20    C90       1.09088      .   S
    H26    C100      1.09102      .   S
    C90    N134      1.34923      .   S
    C90    C89       1.39492      .   S
    C100   N136      1.34953      .   S
    C100   C99       1.39414      .   S
    N134   C86       1.35590      .   S
    N136   C96       1.35356      .   S
    C99    C98       1.40509      .   S
    C89    C88       1.40481      .   S
    C86    H18       1.08804      .   S
    C86    C87       1.38767      .   S
    C96    H24       1.08851      .   S
    C96    C97       1.38881      .   S
    H1     C53       1.08829      .   S
    H43    C123      1.08850      .   S
    C98    C97       1.39886      .   S
    C88    C87       1.39882      .   S
    C87    H19       1.08836      .   S
    C97    H25       1.08856      .   S
    C53    C54       1.39895      .   S
    C53    C52       1.38879      .   S
    C123   C124      1.39875      .   S
    C123   C122      1.38783      .   S
    C54    C55       1.40483      .   S
    C124   C125      1.40440      .   S
    H0     C52       1.08834      .   S
    H42    C122      1.08821      .   S
    C52    N67       1.35369      .   S
    C122   N142      1.35332      .   S
    C55    C56       1.39419      .   S
    C125   C126      1.39410      .   S
    N67    C56       1.34971      .   S
    N142   C126      1.34953      .   S
    C56    H2        1.09105      .   S
    C126   H44       1.09092      .   S
    H23    C95       1.09064      .   S
    H29    C105      1.09039      .   S
    C95    N135      1.34862      .   S
    C95    C94       1.19105  1_655   S
    C105   N137      1.34928      .   S
    C105   C104      1.39634      .   S
    N135   C91       1.35697      .   S
    N137   C101      1.35588      .   S
    C94    C93       1.40796      .   S
    H10    C72       1.08964      .   S
    H40    C118      1.08952      .   S
    C104   C103      1.40864      .   S
    C118   C119      1.40052      .   S
    C118   C117      1.38644      .   S
    C72    C73       1.40086  1_455   S
    C72    C71       1.38686      .   S
    C91    H21       1.08978      .   S
    C91    C92       1.38687      .   S
    C101   H27       1.09007      .   S
    C101   C102      1.38689      .   S
    H39    C117      1.09009      .   S
    H9     C71       1.08991      .   S
    C93    C92       1.20356  1_455   S
    C103   C102      1.40101      .   S
    C119   C120      1.40762      .   S
    C73    C74       1.40748      .   S
    C117   N141      1.35567      .   S
    C71    N70       1.35612      .   S
    C92    H22       1.08953      .   S
    C102   H28       1.08979      .   S
    C120   C121      1.39604      .   S
    C74    C75       1.39634  1_655   S
    N141   C121      1.34925      .   S
    N70    C75       1.34912      .   S
    C121   H41       1.09046      .   S
    C75    H11       1.09004      .   S
    H32    C106      1.09099      .   S
    H14    C80       1.09113      .   S
    C106   N138      1.34942      .   S
    C106   C51       1.39486      .   S
    C80    N132      1.34953      .   S
    C80    C79       1.39521      .   S
    N138   C48       1.33107      .   S
    N132   C76       1.35326      .   S
    C51    C50       1.40476      .   S
    C79    C78       1.40522      .   S
    C48    H30       1.09294      .   S
    C48    C49       1.40464      .   S
    C76    H12       1.08827      .   S
    C76    C77       1.38761      .   S
    C50    C49       1.39876      .   S
    C78    C77       1.39904      .   S
