# CIF file generated by openbabel 2.4.90, see http://openbabel.sf.net
data_I
_chemical_name_common ''
_cell_length_a 14.575
_cell_length_b 14.7
_cell_length_c 26.013
_cell_angle_alpha 90.15
_cell_angle_beta 90.408
_cell_angle_gamma 90.188
_space_group_name_H-M_alt 'P 1'
_space_group_name_Hall 'P 1'
loop_
    _symmetry_equiv_pos_as_xyz
    x,y,z
loop_
    _atom_site_label
    _atom_site_type_symbol
    _atom_site_fract_x
    _atom_site_fract_y
    _atom_site_fract_z
    _atom_site_occupancy
    Zn0     Zn   0.73095   0.95272   0.65303   1.000
    Zn1     Zn   0.76530   0.43737   0.89324   1.000
    Zn2     Zn   0.76631   0.04716   0.15302   1.000
    Zn3     Zn   0.26166   0.05806   0.10677   1.000
    Zn4     Zn   0.26940   0.44847   0.84824   1.000
    Zn5     Zn   0.23441   0.93768   0.60688   1.000
    Zn6     Zn   0.23092   0.54735   0.34651   1.000
    Zn7     Zn   0.26307   0.44135   0.60683   1.000
    Zn8     Zn   0.26896   0.04709   0.34710   1.000
    Zn9     Zn   0.23449   0.55873   0.10677   1.000
    Zn10    Zn   0.23378   0.94859   0.84700   1.000
    Zn11    Zn   0.73825   0.93770   0.89321   1.000
    Zn12    Zn   0.72998   0.54696   0.15262   1.000
    Zn13    Zn   0.76562   0.06193   0.39304   1.000
    Zn14    Zn   0.76609   0.45297   0.65340   1.000
    H15     H    0.73650   0.94892   0.53591   1.000
    H16     H    0.75001   0.82872   0.46815   1.000
    H17     H    0.71555   0.75395   0.65079   1.000
    H18     H    0.28127   0.62015   0.24295   1.000
    H19     H    0.42339   0.65593   0.19414   1.000
    H20     H    0.43279   0.52833   0.36852   1.000
    H21     H    0.76662   0.42609   0.31120   1.000
    H22     H    0.89519   0.32646   0.28154   1.000
    H23     H    0.04393   0.32961   0.33220   1.000
    H24     H    0.05354   0.42271   0.41216   1.000
    H25     H    0.91459   0.51310   0.43919   1.000
    H26     H    0.75872   0.04933   0.03641   1.000
    H27     H    0.74547   0.16779   0.96798   1.000
    H28     H    0.78109   0.24697   0.15047   1.000
    H29     H    0.21722   0.37950   0.74364   1.000
    H30     H    0.07414   0.34555   0.69403   1.000
    H31     H    0.06802   0.46512   0.87054   1.000
    Zn32    Zn   0.73458   0.55847   0.39300   1.000
    H33     H    0.73919   0.57113   0.81152   1.000
    H34     H    0.61398   0.67454   0.78025   1.000
    H35     H    0.46416   0.67483   0.82820   1.000
    H36     H    0.44885   0.58010   0.90692   1.000
    H37     H    0.58475   0.48632   0.93608   1.000
    H38     H    0.26276   0.44600   0.96420   1.000
    H39     H    0.24879   0.32718   0.03242   1.000
    H40     H    0.28555   0.24874   0.85020   1.000
    H41     H    0.71678   0.11919   0.25641   1.000
    H42     H    0.57457   0.15380   0.30548   1.000
    H43     H    0.56500   0.02756   0.13038   1.000
    H44     H    0.23004   0.92590   0.18863   1.000
    H45     H    0.10212   0.82461   0.21790   1.000
    H46     H    0.95338   0.82597   0.16715   1.000
    H47     H    0.94324   0.91929   0.08761   1.000
    H48     H    0.08173   0.01111   0.06086   1.000
    H49     H    0.23573   0.54988   0.46274   1.000
    H50     H    0.24842   0.66856   0.53150   1.000
    H51     H    0.21662   0.74731   0.34902   1.000
    H52     H    0.78250   0.87872   0.75627   1.000
    H53     H    0.92524   0.84124   0.80503   1.000
    H54     H    0.93242   0.97006   0.63096   1.000
    H55     H    0.26598   0.07015   0.68937   1.000
    H56     H    0.39379   0.17195   0.71978   1.000
    H57     H    0.54223   0.17101   0.67009   1.000
    H58     H    0.55257   0.07746   0.59046   1.000
    H59     H    0.41431   0.98495   0.56254   1.000
    H60     H    0.26138   0.05128   0.46385   1.000
    H61     H    0.24646   0.17137   0.53153   1.000
    H62     H    0.28382   0.24630   0.34909   1.000
    H63     H    0.71707   0.37781   0.75649   1.000
    H64     H    0.57519   0.33996   0.80509   1.000
    H65     H    0.56474   0.47263   0.63195   1.000
    H66     H    0.23372   0.57478   0.68800   1.000
    H67     H    0.10565   0.67440   0.71870   1.000
    H68     H    0.95590   0.67086   0.66907   1.000
    H69     H    0.94450   0.57728   0.58940   1.000
    H70     H    0.08304   0.48687   0.56153   1.000
    H71     H    0.24200   0.94640   0.96330   1.000
    H72     H    0.25523   0.82812   0.03189   1.000
    H73     H    0.21874   0.74855   0.84948   1.000
    H74     H    0.78219   0.61917   0.25593   1.000
    H75     H    0.92563   0.65571   0.30477   1.000
    H76     H    0.93073   0.52937   0.12900   1.000
    H77     H    0.25911   0.42452   0.18836   1.000
    H78     H    0.38404   0.32129   0.22029   1.000
    H79     H    0.53468   0.32145   0.17324   1.000
    H80     H    0.55142   0.41662   0.09480   1.000
    H81     H    0.41596   0.51042   0.06498   1.000
    H82     H    0.73680   0.54972   0.03597   1.000
    H83     H    0.75191   0.66907   0.96815   1.000
    H84     H    0.71358   0.74607   0.15044   1.000
    H85     H    0.28301   0.87814   0.74330   1.000
    H86     H    0.42505   0.84340   0.69414   1.000
    H87     H    0.43512   0.96763   0.86970   1.000
    H88     H    0.76580   0.07175   0.81205   1.000
    H89     H    0.89214   0.17439   0.78187   1.000
    H90     H    0.04245   0.17310   0.83080   1.000
    H91     H    0.05652   0.07789   0.90949   1.000
    H92     H    0.91949   0.98488   0.93748   1.000
    H93     H    0.75977   0.44956   0.53684   1.000
    H94     H    0.74700   0.32976   0.46867   1.000
    H95     H    0.78106   0.25395   0.65145   1.000
    H96     H    0.21750   0.11844   0.24329   1.000
    H97     H    0.07468   0.15482   0.19429   1.000
    H98     H    0.06774   0.03037   0.36939   1.000
    H99     H    0.73873   0.92721   0.31144   1.000
    C100    C    0.24040   0.87428   0.95300   1.000
    C101    C    0.24815   0.80825   0.99171   1.000
    C102    C    0.24772   0.71609   0.97820   1.000
    C103    C    0.23732   0.69295   0.92605   1.000
    H104    H    0.61250   0.82445   0.27966   1.000
    H105    H    0.46191   0.82596   0.32690   1.000
    H106    H    0.44688   0.92149   0.40551   1.000
    H107    H    0.58373   0.01472   0.43522   1.000
    C108    C    0.73541   0.87702   0.54577   1.000
    C109    C    0.74329   0.80993   0.50839   1.000
    C110    C    0.74368   0.71813   0.52243   1.000
    C111    C    0.73353   0.69644   0.57465   1.000
    C112    C    0.72553   0.76741   0.60998   1.000
    C113    C    0.75756   0.64558   0.48232   1.000
    C114    C    0.72422   0.60094   0.59484   1.000
    C115    C    0.34893   0.60825   0.25968   1.000
    C116    C    0.42839   0.62795   0.23280   1.000
    C117    C    0.51440   0.61136   0.25518   1.000
    C118    C    0.51637   0.57626   0.30547   1.000
    C119    C    0.43357   0.55719   0.32995   1.000
    C120    C    0.59972   0.62817   0.22374   1.000
    C121    C    0.60343   0.56262   0.33488   1.000
    C122    C    0.83102   0.42223   0.33260   1.000
    C123    C    0.90318   0.36816   0.31610   1.000
    C124    C    0.98472   0.36884   0.34462   1.000
    C125    C    0.99052   0.42107   0.38944   1.000
    C126    C    0.91516   0.47211   0.40423   1.000
    C127    C    0.76012   0.12144   0.04590   1.000
    C128    C    0.75237   0.18757   0.00818   1.000
    C129    C    0.75255   0.27973   0.02174   1.000
    C130    C    0.76270   0.30275   0.07393   1.000
    C131    C    0.77077   0.23256   0.10960   1.000
    N132    N    0.72683   0.85582   0.59612   1.000
    N133    N    0.35121   0.57246   0.30766   1.000
    N134    N    0.83674   0.47373   0.37587   1.000
    N135    N    0.76917   0.14382   0.09624   1.000
    N136    N    0.14845   0.42388   0.80909   1.000
    C137    C    0.74017   0.35109   0.98094   1.000
    C138    C    0.77193   0.39873   0.09386   1.000
    C139    C    0.14987   0.39029   0.76050   1.000
    C140    C    0.06991   0.37166   0.73318   1.000
    C141    C    0.98432   0.38688   0.75575   1.000
    C142    C    0.98326   0.41955   0.80665   1.000
    C143    C    0.06652   0.43774   0.83156   1.000
    C144    C    0.89843   0.37080   0.72402   1.000
    C145    C    0.89664   0.43205   0.83598   1.000
    C146    C    0.67424   0.57646   0.83179   1.000
    C147    C    0.60409   0.63258   0.81436   1.000
    C148    C    0.52168   0.63362   0.84139   1.000
    C149    C    0.51290   0.58084   0.88563   1.000
    C150    C    0.58645   0.52779   0.90144   1.000
    C151    C    0.26414   0.37390   0.95466   1.000
    C152    C    0.25600   0.30765   0.99227   1.000
    C153    C    0.25606   0.21554   0.97860   1.000
    C154    C    0.26683   0.19253   0.92653   1.000
    C155    C    0.27514   0.26286   0.89094   1.000
    C156    C    0.24267   0.14449   0.01932   1.000
    C157    C    0.27635   0.09668   0.90653   1.000
    C158    C    0.64903   0.10706   0.23970   1.000
    C159    C    0.56964   0.12603   0.26668   1.000
    C160    C    0.48366   0.10905   0.24419   1.000
    C161    C    0.48139   0.07444   0.19369   1.000
    C162    C    0.56416   0.05611   0.16910   1.000
    C163    C    0.39881   0.12534   0.27592   1.000
    C164    C    0.39407   0.06091   0.16430   1.000
    C165    C    0.16572   0.92120   0.16716   1.000
    C166    C    0.09387   0.86619   0.18346   1.000
    C167    C    0.01237   0.86593   0.15491   1.000
    C168    C    0.00632   0.91816   0.11027   1.000
    C169    C    0.08141   0.97007   0.09560   1.000
    C170    C    0.23489   0.62196   0.45337   1.000
    C171    C    0.24229   0.68817   0.49131   1.000
    C172    C    0.24285   0.78028   0.47796   1.000
    C173    C    0.23348   0.80330   0.42581   1.000
    C174    C    0.22602   0.73306   0.38985   1.000
    C175    C    0.25562   0.85152   0.51898   1.000
    C176    C    0.22455   0.89932   0.40618   1.000
    C177    C    0.84994   0.89015   0.73961   1.000
    C178    C    0.92972   0.86947   0.76644   1.000
    C179    C    0.00000   0.88546   0.74414   1.000
    C180    C    0.00000   0.92073   0.69387   1.000
    C181    C    0.93371   0.94087   0.66946   1.000
    C182    C    0.10102   0.86798   0.77584   1.000
    C183    C    0.10347   0.93360   0.66454   1.000
    C184    C    0.33027   0.07492   0.66840   1.000
    C185    C    0.40199   0.13018   0.68534   1.000
    C186    C    0.48341   0.13067   0.65737   1.000
    C187    C    0.48955   0.07830   0.61269   1.000
    C188    C    0.41460   0.00000   0.59745   1.000
    C189    C    0.26256   0.12319   0.45399   1.000
    C190    C    0.25382   0.19025   0.49133   1.000
    C191    C    0.25340   0.28205   0.47731   1.000
    C192    C    0.26423   0.30377   0.42513   1.000
    C193    C    0.27323   0.23286   0.38985   1.000
    C194    C    0.23893   0.35459   0.51738   1.000
    C195    C    0.27326   0.39933   0.40502   1.000
    C196    C    0.64928   0.38996   0.73997   1.000
    C197    C    0.56999   0.36912   0.76671   1.000
    C198    C    0.48383   0.38609   0.74459   1.000
    C199    C    0.48141   0.42265   0.69460   1.000
    C200    C    0.56410   0.44276   0.67027   1.000
    C201    C    0.39897   0.36813   0.77619   1.000
    C202    C    0.39417   0.43670   0.66535   1.000
    C203    C    0.16881   0.57850   0.66736   1.000
    C204    C    0.09699   0.63256   0.68429   1.000
    C205    C    0.01485   0.63162   0.65630   1.000
    C206    C    0.00806   0.57916   0.61163   1.000
    C207    C    0.08310   0.52811   0.59641   1.000
    C208    C    0.22924   0.76301   0.89026   1.000
    C209    C    0.25996   0.64474   0.01899   1.000
    C210    C    0.22802   0.59691   0.90631   1.000
    C211    C    0.84950   0.60802   0.23909   1.000
    C212    C    0.92958   0.62811   0.26593   1.000
    C213    C    0.00000   0.61227   0.24331   1.000
    C214    C    0.00000   0.57766   0.19281   1.000
    C215    C    0.93258   0.55815   0.16836   1.000
    C216    C    0.10072   0.62880   0.27502   1.000
    C217    C    0.10254   0.56464   0.16346   1.000
    C218    C    0.32453   0.41953   0.16854   1.000
    C219    C    0.39445   0.36346   0.18632   1.000
    C220    C    0.47738   0.36269   0.15978   1.000
    C221    C    0.48695   0.41572   0.11500   1.000
    C222    C    0.41364   0.46876   0.09954   1.000
    C223    C    0.73553   0.62174   0.04573   1.000
    C224    C    0.74430   0.68832   0.00833   1.000
    C225    C    0.74454   0.78031   0.02225   1.000
    C226    C    0.73324   0.80279   0.07435   1.000
    C227    C    0.72430   0.73221   0.10970   1.000
    C228    C    0.75928   0.85203   0.98200   1.000
    C229    C    0.72413   0.89851   0.09453   1.000
    C230    C    0.35080   0.88967   0.76010   1.000
    C231    C    0.43011   0.87061   0.73306   1.000
    C232    C    0.51616   0.88683   0.75564   1.000
    C233    C    0.51852   0.92083   0.80627   1.000
    C234    C    0.43586   0.93939   0.83090   1.000
    C235    C    0.60112   0.87066   0.72398   1.000
    C236    C    0.60587   0.93377   0.83569   1.000
    C237    C    0.83091   0.07640   0.83276   1.000
    C238    C    0.90177   0.13217   0.81595   1.000
    C239    C    0.98431   0.13236   0.84354   1.000
    C240    C    0.99245   0.07922   0.88774   1.000
    C241    C    0.91825   0.00000   0.90291   1.000
    C242    C    0.76101   0.37760   0.54653   1.000
    C243    C    0.75357   0.31076   0.50894   1.000
    C244    C    0.75354   0.21888   0.52278   1.000
    C245    C    0.76353   0.19679   0.57501   1.000
    C246    C    0.77106   0.26756   0.61059   1.000
    C247    C    0.74031   0.14682   0.48223   1.000
    C248    C    0.77296   0.10114   0.59494   1.000
    C249    C    0.15007   0.10761   0.26009   1.000
    C250    C    0.07027   0.12766   0.23310   1.000
    C251    C    0.98460   0.11231   0.25563   1.000
    C252    C    0.98329   0.07834   0.30617   1.000
    C253    C    0.06639   0.05873   0.33070   1.000
    C254    C    0.89893   0.12912   0.22398   1.000
    C255    C    0.89674   0.06601   0.33563   1.000
    C256    C    0.67339   0.92271   0.33139   1.000
    C257    C    0.60267   0.86694   0.31367   1.000
    C258    C    0.51984   0.86688   0.34031   1.000
    C259    C    0.51121   0.92024   0.38447   1.000
    C260    C    0.58527   0.97291   0.40050   1.000
    N261    N    0.66576   0.52467   0.87456   1.000
    N262    N    0.27336   0.35153   0.90447   1.000
    N263    N    0.64649   0.07156   0.19150   1.000
    N264    N    0.15974   0.97262   0.12409   1.000
    N265    N    0.22705   0.64434   0.40300   1.000
    N266    N    0.85167   0.92638   0.69170   1.000
    N267    N    0.33629   0.00000   0.62526   1.000
    N268    N    0.27209   0.14446   0.40371   1.000
    N269    N    0.64659   0.42722   0.69236   1.000
    N270    N    0.16208   0.52677   0.62426   1.000
    N271    N    0.23108   0.85175   0.90364   1.000
    N272    N    0.85082   0.57251   0.19096   1.000
    N273    N    0.33378   0.47157   0.12590   1.000
    N274    N    0.72590   0.64364   0.09597   1.000
    N275    N    0.35346   0.92462   0.80837   1.000
    N276    N    0.83885   0.00000   0.87544   1.000
    N277    N    0.76949   0.35602   0.59688   1.000
    N278    N    0.14839   0.07259   0.30824   1.000
    N279    N    0.66504   0.97512   0.37400   1.000
    O280    O    0.72672   0.66563   0.43674   1.000
    O281    O    0.79733   0.57303   0.49334   1.000
    O282    O    0.78849   0.57703   0.62695   1.000
    O283    O    0.65646   0.55442   0.58224   1.000
    O284    O    0.63061   0.55370   0.20390   1.000
    O285    O    0.62862   0.70694   0.21771   1.000
    O286    O    0.67721   0.60143   0.32016   1.000
    O287    O    0.60215   0.51535   0.37620   1.000
    O288    O    0.76942   0.32838   0.93561   1.000
    O289    O    0.70339   0.42565   0.99105   1.000
    O290    O    0.70716   0.42328   0.12500   1.000
    O291    O    0.83988   0.44501   0.08204   1.000
    O292    O    0.86723   0.44538   0.70445   1.000
    O293    O    0.86943   0.29204   0.71771   1.000
    O294    O    0.82237   0.39480   0.82010   1.000
    O295    O    0.89861   0.47730   0.87818   1.000
    O296    O    0.26932   0.16803   0.06522   1.000
    O297    O    0.20716   0.06907   0.00000   1.000
    O298    O    0.21097   0.07122   0.87536   1.000
    O299    O    0.34511   0.05152   0.91820   1.000
    O300    O    0.36768   0.05085   0.29562   1.000
    O301    O    0.37059   0.20409   0.28240   1.000
    O302    O    0.32030   0.09808   0.18009   1.000
    O303    O    0.39481   0.01560   0.12218   1.000
    O304    O    0.22691   0.82858   0.56434   1.000
    O305    O    0.29260   0.92622   0.50900   1.000
    O306    O    0.28978   0.92423   0.37533   1.000
    O307    O    0.15640   0.94503   0.41785   1.000
    O308    O    0.13316   0.94231   0.79573   1.000
    O309    O    0.12881   0.78904   0.78218   1.000
    O310    O    0.17707   0.89495   0.67981   1.000
    O311    O    0.10204   0.98009   0.62291   1.000
    O312    O    0.27023   0.33483   0.56291   1.000
    O313    O    0.19846   0.42673   0.50630   1.000
    O314    O    0.20928   0.42300   0.37268   1.000
    O315    O    0.34055   0.44622   0.41794   1.000
    O316    O    0.36750   0.44217   0.79622   1.000
    O317    O    0.37116   0.28900   0.78226   1.000
    O318    O    0.32040   0.39776   0.67990   1.000
    O319    O    0.39522   0.48443   0.62417   1.000
    O320    O    0.23045   0.66745   0.06426   1.000
    O321    O    0.29681   0.57020   0.00000   1.000
    O322    O    0.29304   0.57194   0.87541   1.000
    O323    O    0.15984   0.55085   0.91798   1.000
    O324    O    0.13262   0.55394   0.29390   1.000
    O325    O    0.12891   0.70760   0.28217   1.000
    O326    O    0.17596   0.60486   0.17820   1.000
    O327    O    0.10149   0.51619   0.12241   1.000
    O328    O    0.73113   0.82999   0.93607   1.000
    O329    O    0.79710   0.92596   0.99312   1.000
    O330    O    0.78852   0.92280   0.12663   1.000
    O331    O    0.65658   0.94485   0.08201   1.000
    O332    O    0.63229   0.94534   0.70451   1.000
    O333    O    0.62938   0.79195   0.71748   1.000
    O334    O    0.67923   0.89520   0.82034   1.000
    O335    O    0.60543   0.98026   0.87744   1.000
    O336    O    0.77284   0.16787   0.43736   1.000
    O337    O    0.69964   0.07415   0.49209   1.000
    O338    O    0.70939   0.07703   0.62700   1.000
    O339    O    0.83992   0.05457   0.58215   1.000
    O340    O    0.86692   0.05451   0.20434   1.000
    O341    O    0.87089   0.20793   0.21760   1.000
    O342    O    0.82317   0.10498   0.32046   1.000
    O343    O    0.89812   0.01953   0.37724   1.000
loop_
    _geom_bond_atom_site_label_1
    _geom_bond_atom_site_label_2
    _geom_bond_distance
    _geom_bond_site_symmetry_2
    _ccdc_geom_bond_type
    O297   C156      1.31865      .   S
    O321   C209      1.31830      .   S
    C128   C129      1.39896      .   S
    C128   C127      1.38737      .   S
    C128   H27       1.08854  1_554   S
    C224   C225      1.39892      .   S
    C224   C223      1.38809      .   S
    C224   H83       1.08863  1_554   S
    C209   O320      1.29972      .   S
    C209   C102      1.50398  1_554   S
    C156   O296      1.29872      .   S
    C156   C153      1.50282  1_554   S
    C129   C130      1.40497      .   S
    C129   C137      1.50457  1_554   S
    C225   C226      1.40510      .   S
    C225   C228      1.50385  1_554   S
    H72    C101      1.08861  1_554   S
    H39    C152      1.08833  1_554   S
    H82    C223      1.08827      .   S
    H26    C127      1.08776      .   S
    C223   N274      1.35350      .   S
    C127   N135      1.35479      .   S
    H48    C169      1.08786  1_545   S
    O320   Zn9       1.94671      .   S
    H81    C222      1.08978      .   S
    O296   Zn3       1.95034      .   S
    C130   C138      1.50722      .   S
    C130   C131      1.39407      .   S
    C226   C229      1.50703      .   S
    C226   C227      1.39465      .   S
    O331   C229      1.24115      .   S
    O291   C138      1.24058      .   S
    H47    C168      1.08876  1_655   S
    C138   O290      1.29966      .   S
    C229   O330      1.30021      .   S
    H80    C221      1.07989      .   S
    C169   C168      1.38848      .   S
    C169   N264      1.35712      .   S
    N274   C227      1.34950      .   S
    N274   Zn12      2.05060      .   S
    N135   C131      1.34920      .   S
    N135   Zn2       2.05273      .   S
    C222   C221      1.38289      .   S
    C222   N273      1.35576      .   S
    Zn3    O303      2.07719      .   S
    Zn3    N264      1.99677  1_545   S
    Zn3    O302      2.16377      .   S
    Zn9    O327      2.07818      .   S
    Zn9    N273      1.99719      .   S
    Zn9    O326      2.15875      .   S
    C131   H28       1.09274      .   S
    C227   H84       1.09111      .   S
    C168   C167      1.39622      .   S
    C221   C220      1.41087      .   S
    O303   C164      1.28086      .   S
    O327   C217      1.28197      .   S
    N264   C165      1.35563      .   S
    O290   Zn12      1.97947      .   S
    N273   C218      1.35633      .   S
    O330   Zn2       1.97962  1_565   S
    H76    C215      1.10694      .   S
    H43    C162      1.09032      .   S
    Zn12   N272      2.05089      .   S
    Zn12   O284      1.97857      .   S
    Zn2    N263      2.05115      .   S
    Zn2    O340      1.97855      .   S
    C167   H46       1.08964  1_455   S
    C167   C166      1.39639      .   S
    C220   H79       1.08990      .   S
    C220   C219      1.39630      .   S
    C217   O326      1.27683      .   S
    C217   C214      1.69430      .   S
    C164   O302      1.27758      .   S
    C164   C161      1.49254      .   S
    C165   C166      1.39024      .   S
    C165   H44       1.08972      .   S
    C215   N272      1.34959      .   S
    C215   C214      1.20022  1_655   S
    C218   C219      1.39016      .   S
    C218   H77       1.08976      .   S
    C162   N263      1.34861      .   S
    C162   C161      1.39611      .   S
    C166   H45       1.09208      .   S
    C219   H78       1.09193      .   S
    N272   C211      1.35549      .   S
    N263   C158      1.35701      .   S
    C214   C213      1.40745      .   S
    C161   C160      1.40767      .   S
    H19    C116      1.08957      .   S
    H97    C250      1.08889      .   S
    O284   C120      1.29273      .   S
    O340   C254      1.29298      .   S
    O341   C254      1.24088      .   S
    O285   C120      1.24147      .   S
    C120   C117      1.51319      .   S
    C254   C251      1.51212      .   S
    C116   C117      1.40083      .   S
    C116   C115      1.38727      .   S
    C250   C251      1.40104  1_455   S
    C250   C249      1.38720      .   S
    C211   H74       1.09006      .   S
    C211   C212      1.38631      .   S
    C158   H41       1.09005      .   S
    C158   C159      1.38634      .   S
    H18    C115      1.08987      .   S
    H96    C249      1.08974      .   S
    C213   C212      1.20973  1_455   S
    C213   C216      1.69522      .   S
    C160   C159      1.40063      .   S
    C160   C163      1.51109      .   S
    C117   C118      1.40766      .   S
    C251   C252      1.40777      .   S
    C115   N133      1.35598      .   S
    C249   N278      1.35577      .   S
    C212   H75       1.08971      .   S
    C159   H42       1.08955      .   S
    C216   O325      1.24085      .   S
    C216   O324      1.29292      .   S
    C163   O301      1.24122      .   S
    C163   O300      1.29255      .   S
    H104   C257      1.09217      .   S
    H22    C123      1.09213      .   S
    O324   Zn6       1.97698      .   S
    O300   Zn8       1.97331      .   S
    C118   C119      1.39656      .   S
    C118   C121      1.49135      .   S
    C252   C253      1.39620  1_655   S
    C252   C255      1.49155      .   S
    N133   C119      1.34903      .   S
    N133   Zn6       2.06264      .   S
    N278   C253      1.34909      .   S
    N278   Zn8       2.05710      .   S
    H21    C122      1.08960      .   S
    H99    C256      1.08975      .   S
    C257   C256      1.39018      .   S
    C257   C258      1.39629      .   S
    C123   C122      1.39004      .   S
    C123   C124      1.39654      .   S
    O286   C121      1.27735      .   S
    O286   Zn32      2.16222      .   S
    O342   C255      1.27781      .   S
    O342   Zn13      2.16658      .   S
    H105   C258      1.08988      .   S
    C119   H20       1.09048      .   S
    C253   H98       1.09048      .   S
    C256   N279      1.35456      .   S
    H23    C124      1.08993  1_455   S
    C122   N134      1.35673      .   S
    C121   O287      1.28158      .   S
    C255   O343      1.28164      .   S
    C258   C259      1.39596      .   S
    C124   C125      1.39622      .   S
    Zn6    O314      1.97735      .   S
    Zn6    N265      2.04600      .   S
    Zn8    O306      1.97486  1_545   S
    Zn8    N268      2.05112      .   S
    H51    C174      1.09088      .   S
    H62    C193      1.09102      .   S
    O314   C195      1.30034      .   S
    N279   Zn13      1.99924  1_565   S
    N279   C260      1.35615      .   S
    O306   C176      1.30077      .   S
    N134   Zn32      1.99659      .   S
    N134   C126      1.35634      .   S
    O287   Zn32      2.07282      .   S
    O343   Zn13      2.07479      .   S
    C259   C260      1.38757      .   S
    C259   H106      1.08911      .   S
    C125   C126      1.38822      .   S
    C125   H24       1.08888  1_655   S
    C174   N265      1.34923      .   S
    C174   C173      1.39492      .   S
    C193   N268      1.34953      .   S
    C193   C192      1.39414      .   S
    Zn32   O280      1.94488      .   S
    Zn13   O336      1.93732      .   S
    C260   H107      1.09152  1_565   S
    N265   C170      1.35590      .   S
    N268   C189      1.35356      .   S
    C126   H25       1.08970      .   S
    C195   O315      1.24067      .   S
    C195   C192      1.50602      .   S
    C176   O307      1.24014      .   S
    C176   C173      1.50794      .   S
    C192   C191      1.40509      .   S
    C173   C172      1.40481      .   S
    O280   C113      1.29992      .   S
    O336   C247      1.30065      .   S
    C170   H49       1.08804      .   S
    C170   C171      1.38767      .   S
    C189   H60       1.08851      .   S
    C189   C190      1.38881      .   S
    H16    C109      1.08829      .   S
    H94    C243      1.08850      .   S
    C191   C190      1.39886      .   S
    C191   C194      1.50564      .   S
    C172   C171      1.39882      .   S
    C172   C175      1.50332      .   S
    C247   O337      1.24808      .   S
    C247   C244      1.50390      .   S
    C113   O281      1.24848      .   S
    C113   C110      1.50518      .   S
    C171   H50       1.08836      .   S
    C190   H61       1.08856      .   S
    O313   C194      1.24847      .   S
    C109   C110      1.39895      .   S
    C109   C108      1.38879      .   S
    C243   C244      1.39875      .   S
    C243   C242      1.38783      .   S
    O305   C175      1.25028      .   S
    C194   O312      1.30009      .   S
    C175   O304      1.29975      .   S
    C110   C111      1.40483      .   S
    C244   C245      1.40440      .   S
    H15    C108      1.08834      .   S
    H93    C242      1.08821      .   S
    C108   N132      1.35369      .   S
    C242   N277      1.35332      .   S
    H70    C207      1.08989      .   S
    H59    C188      0.93408  1_565   S
    O312   Zn7       1.93946      .   S
    O304   Zn5       1.94845      .   S
    C111   C114      1.50620      .   S
    C111   C112      1.39419      .   S
    C245   C248      1.50635      .   S
    C245   C246      1.39410      .   S
    O339   C248      1.24075      .   S
    O283   C114      1.24104      .   S
    H69    C206      1.08880  1_655   S
    H58    C187      1.08900      .   S
    C114   O282      1.30043      .   S
    C248   O338      1.30001      .   S
    N132   C112      1.34971      .   S
    N132   Zn0       2.05215      .   S
    C207   C206      1.38788      .   S
    C207   N270      1.35603      .   S
    N277   C246      1.34953      .   S
    N277   Zn14      2.04588      .   S
    C188   C187      1.63046      .   S
    C188   N267      1.35569      .   S
    Zn7    O319      2.07172      .   S
    Zn7    N270      1.99190      .   S
    Zn7    O318      2.16999      .   S
    Zn5    O311      2.07438      .   S
    Zn5    N267      1.80317  1_565   S
    Zn5    O310      2.17196      .   S
    C112   H17       1.09105      .   S
    C246   H95       1.09092      .   S
    C206   C205      1.39561      .   S
    C187   C186      1.39599      .   S
    O311   C183      1.28215      .   S
    O319   C202      1.28226      .   S
    N270   C203      1.35584      .   S
    N267   C184      1.57336      .   S
    O282   Zn14      1.97789      .   S
    O338   Zn0       1.97579  1_545   S
    H54    C181      1.09064      .   S
    H65    C200      1.09039      .   S
    Zn0    N266      2.05875      .   S
    Zn0    O332      1.97487      .   S
    Zn14   N269      2.05589      .   S
    Zn14   O292      1.98070      .   S
    C205   H68       1.08976  1_455   S
    C205   C204      1.39680      .   S
    C186   H57       1.08980      .   S
    C186   C185      1.39637      .   S
    C183   O310      1.27697      .   S
    C183   C180      1.70508      .   S
    C202   O318      1.27666      .   S
    C202   C199      1.49237      .   S
    C203   C204      1.38990      .   S
    C203   H66       1.08604      .   S
    C184   C185      1.39025      .   S
    C184   H55       1.08974      .   S
    C181   N266      1.34862      .   S
    C181   C180      1.19105  1_655   S
    C200   N269      1.34928      .   S
    C200   C199      1.39634      .   S
    C204   H67       1.09105      .   S
    C185   H56       1.09229      .   S
    N266   C177      1.35697      .   S
    N269   C196      1.35588      .   S
    C180   C179      1.40796      .   S
    H30    C140      1.08964      .   S
    H86    C231      1.08952      .   S
    C199   C198      1.40864      .   S
    O292   C144      1.29259      .   S
    O332   C235      1.29271      .   S
    O333   C235      1.24106      .   S
    O293   C144      1.24132      .   S
    C235   C232      1.51112      .   S
    C144   C141      1.51214      .   S
    C231   C232      1.40052      .   S
    C231   C230      1.38644      .   S
    C140   C141      1.40086  1_455   S
    C140   C139      1.38686      .   S
    C177   H52       1.08978      .   S
    C177   C178      1.38687      .   S
    C196   H63       1.09007      .   S
    C196   C197      1.38689      .   S
    H85    C230      1.09009      .   S
    H29    C139      1.08991      .   S
    C179   C178      1.20356  1_455   S
    C179   C182      1.70297      .   S
    C198   C197      1.40101      .   S
    C198   C201      1.51279      .   S
    C232   C233      1.40762      .   S
    C141   C142      1.40748      .   S
    C230   N275      1.35567      .   S
    C139   N136      1.35612      .   S
    C178   H53       1.08953      .   S
    C197   H64       1.08979      .   S
    C182   O309      1.24124      .   S
    C182   O308      1.29279      .   S
    C201   O317      1.24141      .   S
    C201   O316      1.29243      .   S
    H34    C147      1.09210      .   S
    H89    C238      1.09205      .   S
    O308   Zn10      1.97706      .   S
    O316   Zn4       1.97782      .   S
    C233   C234      1.39604      .   S
    C233   C236      1.49215      .   S
    C142   C143      1.39634  1_655   S
    C142   C145      1.49147      .   S
    N275   C234      1.34925      .   S
    N275   Zn10      2.05028      .   S
    N136   C143      1.34912      .   S
    N136   Zn4       2.06003      .   S
    H33    C146      1.08973      .   S
    H88    C237      1.08971      .   S
    C147   C146      1.39017      .   S
    C147   C148      1.39624      .   S
    C238   C237      1.39021      .   S
    C238   C239      1.39632      .   S
    O294   C145      1.27699      .   S
    O294   Zn1       2.17326      .   S
    O334   C236      1.27782      .   S
    O334   Zn11      2.16580      .   S
    H35    C148      1.08988      .   S
    H90    C239      1.09014  1_455   S
    C234   H87       1.09046      .   S
    C143   H31       1.09004      .   S
    C146   N261      1.35588      .   S
    C237   N276      1.58524      .   S
    C236   O335      1.28168      .   S
    C145   O295      1.28215      .   S
    C148   C149      1.39601      .   S
    C239   C240      1.39630      .   S
    Zn10   O298      1.97607  1_565   S
    Zn10   N271      2.05188      .   S
    Zn4    O322      1.97438      .   S
    Zn4    N262      2.04542      .   S
    H73    C208      1.09099      .   S
    H40    C155      1.09113      .   S
    N261   Zn1       1.99837      .   S
    N261   C150      1.35608      .   S
    O298   C157      1.30022      .   S
    O322   C210      1.30030      .   S
    N276   Zn11      1.79030  1_545   S
    N276   C241      1.35571      .   S
    O335   Zn11      2.07489      .   S
    O295   Zn1       2.06832      .   S
    C149   C150      1.38825      .   S
    C149   H36       1.08886      .   S
    C240   C241      1.63763      .   S
    C240   H91       1.08868  1_655   S
    C208   N271      1.34942      .   S
    C208   C103      1.39486      .   S
    C155   N262      1.34953      .   S
    C155   C154      1.39521      .   S
    Zn11   O328      1.94187      .   S
    Zn1    O288      1.94786      .   S
    C150   H37       1.08960      .   S
    C241   H92       0.92696  1_545   S
    N271   C100      1.33107      .   S
    N262   C151      1.35326      .   S
    C210   O323      1.24055      .   S
    C210   C103      1.50635      .   S
    C157   O299      1.24018      .   S
    C157   C154      1.50788      .   S
    C103   C102      1.40476      .   S
    C154   C153      1.40522      .   S
    O288   C137      1.29988      .   S
    O328   C228      1.30036      .   S
    C100   H71       1.09294      .   S
    C100   C101      1.40464      .   S
    C151   H38       1.08827      .   S
    C151   C152      1.38761      .   S
    C102   C101      1.39876      .   S
    C153   C152      1.39904      .   S
    C137   O289      1.24992      .   S
    C228   O329      1.24918      .   S
