# CIF file generated by openbabel 2.4.90, see http://openbabel.sf.net
data_I
_chemical_name_common ''
_cell_length_a 14.575
_cell_length_b 14.7
_cell_length_c 26.013
_cell_angle_alpha 90.15
_cell_angle_beta 90.408
_cell_angle_gamma 90.188
_space_group_name_H-M_alt 'P 1'
_space_group_name_Hall 'P 1'
loop_
    _symmetry_equiv_pos_as_xyz
    x,y,z
loop_
    _atom_site_label
    _atom_site_type_symbol
    _atom_site_fract_x
    _atom_site_fract_y
    _atom_site_fract_z
    _atom_site_occupancy
    Zn0     Zn   0.73095   0.95272   0.65303   1.000
    Zn1     Zn   0.76530   0.43737   0.89324   1.000
    Zn2     Zn   0.76631   0.04716   0.15302   1.000
    Zn3     Zn   0.26166   0.05806   0.10677   1.000
    Zn4     Zn   0.26940   0.44847   0.84824   1.000
    Zn5     Zn   0.23441   0.93768   0.60688   1.000
    Zn6     Zn   0.23092   0.54735   0.34651   1.000
    Zn7     Zn   0.26307   0.44135   0.60683   1.000
    Zn8     Zn   0.26896   0.04709   0.34710   1.000
    Zn9     Zn   0.23449   0.55873   0.10677   1.000
    Zn10    Zn   0.23378   0.94859   0.84700   1.000
    Zn11    Zn   0.73825   0.93770   0.89321   1.000
    Zn12    Zn   0.72998   0.54696   0.15262   1.000
    Zn13    Zn   0.76562   0.06193   0.39304   1.000
    Zn14    Zn   0.76609   0.45297   0.65340   1.000
    Zn15    Zn   0.73458   0.55847   0.39300   1.000
    C16     C    0.75756   0.64558   0.48232   1.000
    C17     C    0.72422   0.60094   0.59484   1.000
    C18     C    0.59972   0.62817   0.22374   1.000
    C19     C    0.60343   0.56262   0.33488   1.000
    C20     C    0.74017   0.35109   0.98094   1.000
    C21     C    0.77193   0.39873   0.09386   1.000
    C22     C    0.89843   0.37080   0.72402   1.000
    C23     C    0.89664   0.43205   0.83598   1.000
    C24     C    0.24267   0.14449   0.01932   1.000
    C25     C    0.27635   0.09668   0.90653   1.000
    C26     C    0.39881   0.12534   0.27592   1.000
    C27     C    0.39407   0.06091   0.16430   1.000
    C28     C    0.25562   0.85152   0.51898   1.000
    C29     C    0.22455   0.89932   0.40618   1.000
    C30     C    0.10102   0.86798   0.77584   1.000
    C31     C    0.10347   0.93360   0.66454   1.000
    C32     C    0.23893   0.35459   0.51738   1.000
    C33     C    0.27326   0.39933   0.40502   1.000
    C34     C    0.39897   0.36813   0.77619   1.000
    C35     C    0.39417   0.43670   0.66535   1.000
    C36     C    0.25996   0.64474   0.01899   1.000
    C37     C    0.22802   0.59691   0.90631   1.000
    C38     C    0.10072   0.62880   0.27502   1.000
    C39     C    0.10254   0.56464   0.16346   1.000
    C40     C    0.75928   0.85203   0.98200   1.000
    C41     C    0.72413   0.89851   0.09453   1.000
    C42     C    0.60112   0.87066   0.72398   1.000
    C43     C    0.60587   0.93377   0.83569   1.000
    C44     C    0.74031   0.14682   0.48223   1.000
    C45     C    0.77296   0.10114   0.59494   1.000
    C46     C    0.89893   0.12912   0.22398   1.000
    C47     C    0.89674   0.06601   0.33563   1.000
    O48     O    0.72672   0.66563   0.43674   1.000
    O49     O    0.79733   0.57303   0.49334   1.000
    O50     O    0.78849   0.57703   0.62695   1.000
    O51     O    0.65646   0.55442   0.58224   1.000
    O52     O    0.63061   0.55370   0.20390   1.000
    O53     O    0.62862   0.70694   0.21771   1.000
    O54     O    0.67721   0.60143   0.32016   1.000
    O55     O    0.60215   0.51535   0.37620   1.000
    O56     O    0.76942   0.32838   0.93561   1.000
    O57     O    0.70339   0.42565   0.99105   1.000
    O58     O    0.70716   0.42328   0.12500   1.000
    O59     O    0.83988   0.44501   0.08204   1.000
    O60     O    0.86723   0.44538   0.70445   1.000
    O61     O    0.86943   0.29204   0.71771   1.000
    O62     O    0.82237   0.39480   0.82010   1.000
    O63     O    0.89861   0.47730   0.87818   1.000
    O64     O    0.26932   0.16803   0.06522   1.000
    O65     O    0.20716   0.06907   0.00000   1.000
    O66     O    0.21097   0.07122   0.87536   1.000
    O67     O    0.34511   0.05152   0.91820   1.000
    O68     O    0.36768   0.05085   0.29562   1.000
    O69     O    0.37059   0.20409   0.28240   1.000
    O70     O    0.32030   0.09808   0.18009   1.000
    O71     O    0.39481   0.01560   0.12218   1.000
    O72     O    0.22691   0.82858   0.56434   1.000
    O73     O    0.29260   0.92622   0.50900   1.000
    O74     O    0.28978   0.92423   0.37533   1.000
    O75     O    0.15640   0.94503   0.41785   1.000
    O76     O    0.13316   0.94231   0.79573   1.000
    O77     O    0.12881   0.78904   0.78218   1.000
    O78     O    0.17707   0.89495   0.67981   1.000
    O79     O    0.10204   0.98009   0.62291   1.000
    O80     O    0.27023   0.33483   0.56291   1.000
    O81     O    0.19846   0.42673   0.50630   1.000
    O82     O    0.20928   0.42300   0.37268   1.000
    O83     O    0.34055   0.44622   0.41794   1.000
    O84     O    0.36750   0.44217   0.79622   1.000
    O85     O    0.37116   0.28900   0.78226   1.000
    O86     O    0.32040   0.39776   0.67990   1.000
    O87     O    0.39522   0.48443   0.62417   1.000
    O88     O    0.23045   0.66745   0.06426   1.000
    O89     O    0.29681   0.57020   0.00000   1.000
    O90     O    0.29304   0.57194   0.87541   1.000
    O91     O    0.15984   0.55085   0.91798   1.000
    O92     O    0.13262   0.55394   0.29390   1.000
    O93     O    0.12891   0.70760   0.28217   1.000
    O94     O    0.17596   0.60486   0.17820   1.000
    O95     O    0.10149   0.51619   0.12241   1.000
    O96     O    0.73113   0.82999   0.93607   1.000
    O97     O    0.79710   0.92596   0.99312   1.000
    O98     O    0.78852   0.92280   0.12663   1.000
    O99     O    0.65658   0.94485   0.08201   1.000
    O100    O    0.63229   0.94534   0.70451   1.000
    O101    O    0.62938   0.79195   0.71748   1.000
    O102    O    0.67923   0.89520   0.82034   1.000
    O103    O    0.60543   0.98026   0.87744   1.000
    O104    O    0.77284   0.16787   0.43736   1.000
    O105    O    0.69964   0.07415   0.49209   1.000
    O106    O    0.70939   0.07703   0.62700   1.000
    O107    O    0.83992   0.05457   0.58215   1.000
    O108    O    0.86692   0.05451   0.20434   1.000
    O109    O    0.87089   0.20793   0.21760   1.000
    O110    O    0.82317   0.10498   0.32046   1.000
    O111    O    0.89812   0.01953   0.37724   1.000
loop_
    _geom_bond_atom_site_label_1
    _geom_bond_atom_site_label_2
    _geom_bond_distance
    _geom_bond_site_symmetry_2
    _ccdc_geom_bond_type
    O65    C24       1.31865      .   S
    O89    C36       1.31830      .   S
    C36    O88       1.29972      .   S
    C24    O64       1.29872      .   S
    O88    Zn9       1.94671      .   S
    O64    Zn3       1.95034      .   S
    O99    C41       1.24115      .   S
    O59    C21       1.24058      .   S
    C21    O58       1.29966      .   S
    C41    O98       1.30021      .   S
    Zn3    O71       2.07719      .   S
    Zn3    O70       2.16377      .   S
    Zn9    O95       2.07818      .   S
    Zn9    O94       2.15875      .   S
    O71    C27       1.28086      .   S
    O95    C39       1.28197      .   S
    O58    Zn12      1.97947      .   S
    O98    Zn2       1.97962  1_565   S
    Zn12   O52       1.97857      .   S
    Zn2    O108      1.97855      .   S
    C39    O94       1.27683      .   S
    C27    O70       1.27758      .   S
    O52    C18       1.29273      .   S
    O108   C46       1.29298      .   S
    O109   C46       1.24088      .   S
    O53    C18       1.24147      .   S
    C38    O93       1.24085      .   S
    C38    O92       1.29292      .   S
    C26    O69       1.24122      .   S
    C26    O68       1.29255      .   S
    O92    Zn6       1.97698      .   S
    O68    Zn8       1.97331      .   S
    O54    C19       1.27735      .   S
    O54    Zn15      2.16222      .   S
    O110   C47       1.27781      .   S
    O110   Zn13      2.16658      .   S
    C19    O55       1.28158      .   S
    C47    O111      1.28164      .   S
    Zn6    O82       1.97735      .   S
    Zn8    O74       1.97486  1_545   S
    O82    C33       1.30034      .   S
    O74    C29       1.30077      .   S
    O55    Zn15      2.07282      .   S
    O111   Zn13      2.07479      .   S
    Zn15   O48       1.94488      .   S
    Zn13   O104      1.93732      .   S
    C33    O83       1.24067      .   S
    C29    O75       1.24014      .   S
    O48    C16       1.29992      .   S
    O104   C44       1.30065      .   S
    C44    O105      1.24808      .   S
    C16    O49       1.24848      .   S
    O81    C32       1.24847      .   S
    O73    C28       1.25028      .   S
    C32    O80       1.30009      .   S
    C28    O72       1.29975      .   S
    O80    Zn7       1.93946      .   S
    O72    Zn5       1.94845      .   S
    O107   C45       1.24075      .   S
    O51    C17       1.24104      .   S
    C17    O50       1.30043      .   S
    C45    O106      1.30001      .   S
    Zn7    O87       2.07172      .   S
    Zn7    O86       2.16999      .   S
    Zn5    O79       2.07438      .   S
    Zn5    O78       2.17196      .   S
    O79    C31       1.28215      .   S
    O87    C35       1.28226      .   S
    O50    Zn14      1.97789      .   S
    O106   Zn0       1.97579  1_545   S
    Zn0    O100      1.97487      .   S
    Zn14   O60       1.98070      .   S
    C31    O78       1.27697      .   S
    C35    O86       1.27666      .   S
    O60    C22       1.29259      .   S
    O100   C42       1.29271      .   S
    O101   C42       1.24106      .   S
    O61    C22       1.24132      .   S
    C30    O77       1.24124      .   S
    C30    O76       1.29279      .   S
    C34    O85       1.24141      .   S
    C34    O84       1.29243      .   S
    O76    Zn10      1.97706      .   S
    O84    Zn4       1.97782      .   S
    O62    C23       1.27699      .   S
    O62    Zn1       2.17326      .   S
    O102   C43       1.27782      .   S
    O102   Zn11      2.16580      .   S
    C43    O103      1.28168      .   S
    C23    O63       1.28215      .   S
    Zn10   O66       1.97607  1_565   S
    Zn4    O90       1.97438      .   S
    O66    C25       1.30022      .   S
    O90    C37       1.30030      .   S
    O103   Zn11      2.07489      .   S
    O63    Zn1       2.06832      .   S
    Zn11   O96       1.94187      .   S
    Zn1    O56       1.94786      .   S
    C37    O91       1.24055      .   S
    C25    O67       1.24018      .   S
    O56    C20       1.29988      .   S
    O96    C40       1.30036      .   S
    C20    O57       1.24992      .   S
    C40    O97       1.24918      .   S
