# CIF file generated by openbabel 2.4.90, see http://openbabel.sf.net
data_I
_chemical_name_common ''
_cell_length_a 14.575
_cell_length_b 14.7
_cell_length_c 26.013
_cell_angle_alpha 90.15
_cell_angle_beta 90.408
_cell_angle_gamma 90.188
_space_group_name_H-M_alt 'P 1'
_space_group_name_Hall 'P 1'
loop_
    _symmetry_equiv_pos_as_xyz
    x,y,z
loop_
    _atom_site_label
    _atom_site_type_symbol
    _atom_site_fract_x
    _atom_site_fract_y
    _atom_site_fract_z
    _atom_site_occupancy
    N0      N    0.92138   0.41310   0.35810   1.000
    N1      N    0.08464   0.40224   0.77833   1.000
    N2      N    0.58341   0.09387   0.22190   1.000
    N3      N    0.58328   0.58753   0.85565   1.000
    N4      N    0.91169   0.90257   0.72194   1.000
    N5      N    0.42045   0.08087   0.64352   1.000
    N6      N    0.41646   0.90235   0.77794   1.000
    N7      N    0.58358   0.40313   0.72245   1.000
    N8      N    0.73446   0.69265   0.05677   1.000
    N9      N    0.08477   0.09565   0.27788   1.000
    N10     N    0.76222   0.30676   0.55752   1.000
    N11     N    0.73448   0.80626   0.55691   1.000
    N12     N    0.92209   0.08201   0.85728   1.000
    N13     N    0.26540   0.30288   0.94381   1.000
    N14     N    0.26344   0.19395   0.44287   1.000
    N15     N    0.23415   0.69298   0.44273   1.000
    N16     N    0.58193   0.91260   0.35482   1.000
    N17     N    0.41448   0.59532   0.27737   1.000
    N18     N    0.76144   0.19244   0.05672   1.000
    N19     N    0.41600   0.40873   0.14516   1.000
    N20     N    0.07788   0.58735   0.64245   1.000
    N21     N    0.91123   0.59566   0.22113   1.000
    N22     N    0.07545   0.91100   0.14160   1.000
    N23     N    0.23888   0.80327   0.94306   1.000
    Zr24    Zr   0.29828   0.46678   0.84323   1.000
    O25     O    0.40538   0.42845   0.79232   1.000
    O26     O    0.26702   0.59544   0.88642   1.000
    O27     O    0.28333   0.40911   0.87666   1.000
    O28     O    0.22253   0.44299   0.82336   1.000
    Zr29    Zr   0.29721   0.41091   0.59469   1.000
    O30     O    0.22122   0.47331   0.61184   1.000
    O31     O    0.27601   0.33352   0.53240   1.000
    O32     O    0.40395   0.41366   0.64795   1.000
    Zr33    Zr   0.70113   0.52897   0.15698   1.000
    O34     O    0.59345   0.56826   0.20770   1.000
    O35     O    0.73275   0.40028   0.11364   1.000
    O36     O    0.77597   0.55333   0.17672   1.000
    O37     O    0.71616   0.58647   0.12376   1.000
    Zr38    Zr   0.20417   0.96676   0.84298   1.000
    O39     O    0.27961   0.94312   0.82290   1.000
    O40     O    0.21991   0.90924   0.87608   1.000
    O41     O    0.09264   0.92820   0.79197   1.000
    O42     O    0.23633   0.09525   0.88657   1.000
    Zr43    Zr   0.19887   0.90752   0.59521   1.000
    O44     O    0.09029   0.91119   0.64789   1.000
    O45     O    0.27589   0.96619   0.61250   1.000
    O46     O    0.22028   0.83098   0.53290   1.000
    Zr47    Zr   0.70233   0.90784   0.90541   1.000
    O48     O    0.72275   0.83113   0.96743   1.000
    O49     O    0.59583   0.91133   0.85244   1.000
    O50     O    0.77882   0.96664   0.88811   1.000
    Zr51    Zr   0.79604   0.02927   0.15744   1.000
    O52     O    0.76380   0.90046   0.11402   1.000
    O53     O    0.90465   0.06873   0.20814   1.000
    O54     O    0.78031   0.08662   0.12406   1.000
    O55     O    0.72047   0.05294   0.17726   1.000
    Zr56    Zr   0.79949   0.09161   0.40544   1.000
    O57     O    0.77703   0.16821   0.46772   1.000
    O58     O    0.90594   0.08776   0.35241   1.000
    O59     O    0.72406   0.02859   0.38730   1.000
    Zr60    Zr   0.79577   0.47051   0.65766   1.000
    O61     O    0.78039   0.41307   0.62449   1.000
    O62     O    0.72036   0.44606   0.67766   1.000
    O63     O    0.76372   0.59899   0.61424   1.000
    O64     O    0.90439   0.43053   0.70838   1.000
    Zr65    Zr   0.20232   0.52946   0.34189   1.000
    O66     O    0.21694   0.58694   0.37532   1.000
    O67     O    0.27755   0.55354   0.32206   1.000
    O68     O    0.09156   0.56878   0.29102   1.000
    O69     O    0.23421   0.40111   0.38543   1.000
    Zr70    Zr   0.69985   0.58887   0.40523   1.000
    O71     O    0.77669   0.52674   0.38825   1.000
    O72     O    0.72120   0.66646   0.46744   1.000
    O73     O    0.59352   0.58563   0.35200   1.000
    Zr74    Zr   0.29668   0.02799   0.34291   1.000
    O75     O    0.22170   0.05287   0.32284   1.000
    O76     O    0.28183   0.08643   0.37602   1.000
    O77     O    0.26413   0.90007   0.38614   1.000
    O78     O    0.40450   0.06676   0.29195   1.000
    Zr79    Zr   0.70229   0.97049   0.65758   1.000
    O80     O    0.73376   0.09917   0.61442   1.000
    O81     O    0.59492   0.93052   0.70823   1.000
    O82     O    0.71699   0.91287   0.62416   1.000
    O83     O    0.77689   0.94577   0.67737   1.000
    Zr84    Zr   0.29857   0.08775   0.09398   1.000
    O85     O    0.22082   0.02546   0.11125   1.000
    O86     O    0.27798   0.16460   0.03268   1.000
    O87     O    0.40457   0.08426   0.14722   1.000
    Zr88    Zr   0.79941   0.40666   0.90501   1.000
    O89     O    0.77666   0.33029   0.96702   1.000
    O90     O    0.72441   0.47047   0.88739   1.000
    O91     O    0.90585   0.41034   0.85242   1.000
    Zr92    Zr   0.20024   0.58955   0.09344   1.000
    O93     O    0.09075   0.58648   0.14654   1.000
    O94     O    0.27516   0.52574   0.11209   1.000
    O95     O    0.22330   0.66569   0.03213   1.000
loop_
    _geom_bond_atom_site_label_1
    _geom_bond_atom_site_label_2
    _geom_bond_distance
    _geom_bond_site_symmetry_2
    _ccdc_geom_bond_type
    Zr24   O25       2.13055      .   S
    N7     O25       3.20281      .   S
    Zr24   O26       2.24695      .   S
    N23    O26       3.41547      .   S
    Zr24   O27       1.23593      .   S
    N13    O27       2.36145      .   S
    Zr24   O28       1.26356      .   S
    N1     O28       2.39281      .   S
    Zr29   O30       1.50954      .   S
    N20    O30       2.80155      .   S
    Zr29   O31       1.99909      .   S
    N14    O31       3.10387      .   S
    Zr29   O32       2.07602      .   S
    N7     O32       3.25049      .   S
    Zr33   O34       2.13744      .   S
    N17    O34       3.21211      .   S
    Zr33   O35       2.25035      .   S
    N18    O35       3.41991      .   S
    Zr33   O36       1.25313      .   S
    N21    O36       2.35873      .   S
    Zr33   O37       1.23079      .   S
    N8     O37       2.35842      .   S
    Zr38   O39       1.26972      .   S
    N6     O39       2.39634      .   S
    Zr38   O40       1.22945      .   S
    N23    O40       2.35558      .   S
    Zr38   O41       2.16420      .   S
    N4     O41       3.21517  1_655   S
    Zr38   O42       2.24695  1_565   S
    N13    O42       3.41622      .   S
    Zr43   O44       2.10157      .   S
    N4     O44       3.25171  1_655   S
    Zr43   O45       1.48004      .   S
    N5     O45       2.80683  1_545   S
    Zr43   O46       1.99748      .   S
    N15    O46       3.10530      .   S
    Zr47   O48       1.99197      .   S
    N8     O48       3.09756  1_554   S
    Zr47   O49       2.06917      .   S
    N6     O49       3.24524      .   S
    Zr47   O50       1.48173      .   S
    N12    O50       2.80844  1_545   S
    Zr51   O52       2.24882  1_545   S
    N8     O52       3.41929      .   S
    Zr51   O53       2.13120      .   S
    N9     O53       3.20324  1_455   S
    Zr51   O54       1.23277      .   S
    N18    O54       2.36103      .   S
    Zr51   O55       1.26868      .   S
    N2     O55       2.39544      .   S
    Zr56   O57       2.00020      .   S
    N10    O57       3.10426      .   S
    Zr56   O58       2.08411      .   S
    N9     O58       3.26148  1_455   S
    Zr56   O59       1.50770      .   S
    N16    O59       2.80298  1_565   S
    Zr60   O61       1.22462      .   S
    N10    O61       2.35028      .   S
    Zr60   O62       1.27055      .   S
    N7     O62       2.39976      .   S
    Zr60   O63       2.25170      .   S
    N11    O63       3.42230      .   S
    Zr60   O64       2.13851      .   S
    N1     O64       3.21376  1_455   S
    Zr65   O66       1.22785      .   S
    N15    O66       2.35476      .   S
    Zr65   O67       1.26488      .   S
    N17    O67       2.39593      .   S
    Zr65   O68       2.16132      .   S
    N21    O68       3.21126  1_655   S
    Zr65   O69       2.25130      .   S
    N14    O69       3.42205      .   S
    Zr70   O71       1.51498      .   S
    N0     O71       2.80942      .   S
    Zr70   O72       1.99923      .   S
    N11    O72       3.10537      .   S
    Zr70   O73       2.07124      .   S
    N17    O73       3.24511      .   S
    Zr74   O75       1.26337      .   S
    N9     O75       2.39284      .   S
    Zr74   O76       1.23554      .   S
    N14    O76       2.36395      .   S
    Zr74   O77       2.24460  1_545   S
    N15    O77       3.41303      .   S
    Zr74   O78       2.14009      .   S
    N2     O78       3.21605      .   S
    Zr79   O80       2.25007  1_565   S
    N10    O80       3.42031      .   S
    Zr79   O81       2.13478      .   S
    N6     O81       3.20774      .   S
    Zr79   O82       1.23245      .   S
    N11    O82       2.36147      .   S
    Zr79   O83       1.25494      .   S
    N4     O83       2.36373      .   S
    Zr84   O85       1.52538      .   S
    N22    O85       2.81975  1_565   S
    Zr84   O86       1.97832      .   S
    N13    O86       3.08732  1_556   S
    Zr84   O87       2.06822      .   S
    N2     O87       3.24240      .   S
    Zr88   O89       1.99668      .   S
    N18    O89       3.10305  1_554   S
    Zr88   O90       1.51222      .   S
    N3     O90       2.80729      .   S
    Zr88   O91       2.07645      .   S
    N1     O91       3.25439  1_455   S
    Zr92   O93       2.11846      .   S
    N21    O93       3.27149  1_655   S
    Zr92   O94       1.51948      .   S
    N19    O94       2.81389      .   S
    Zr92   O95       1.98086      .   S
    N23    O95       3.08859  1_556   S
