# CIF file generated by openbabel 2.4.90, see http://openbabel.sf.net
data_I
_chemical_name_common ''
_cell_length_a 22.958
_cell_length_b 12.515
_cell_length_c 14.852
_cell_angle_alpha 90
_cell_angle_beta 90
_cell_angle_gamma 90
_space_group_name_H-M_alt 'P 1'
_space_group_name_Hall 'P 1'
loop_
    _symmetry_equiv_pos_as_xyz
    x,y,z
loop_
    _atom_site_label
    _atom_site_type_symbol
    _atom_site_fract_x
    _atom_site_fract_y
    _atom_site_fract_z
    _atom_site_occupancy
    H0      H    0.33956   0.70940   0.85455   1.000
    H1      H    0.83955   0.70940   0.85455   1.000
    H2      H    0.41355   0.56853   0.85434   1.000
    H3      H    0.91354   0.56853   0.85434   1.000
    H4      H    0.34958   0.84088   0.71273   1.000
    H5      H    0.84957   0.84088   0.71273   1.000
    H6      H    0.45743   0.83246   0.71213   1.000
    H7      H    0.95742   0.83246   0.71212   1.000
    H8      H    0.16042   0.29064   0.85455   1.000
    H9      H    0.66042   0.29064   0.85455   1.000
    H10     H    0.08644   0.43150   0.85434   1.000
    H11     H    0.58643   0.43150   0.85434   1.000
    H12     H    0.15041   0.15916   0.71273   1.000
    H13     H    0.65040   0.15916   0.71273   1.000
    H14     H    0.04256   0.16758   0.71213   1.000
    H15     H    0.54255   0.16758   0.71213   1.000
    H16     H    0.16043   0.70939   0.64542   1.000
    H17     H    0.66042   0.70939   0.64542   1.000
    H18     H    0.08644   0.56853   0.64563   1.000
    H19     H    0.58643   0.56853   0.64563   1.000
    H20     H    0.15041   0.84088   0.78724   1.000
    H21     H    0.65040   0.84088   0.78724   1.000
    H22     H    0.04255   0.83246   0.78785   1.000
    H23     H    0.54255   0.83246   0.78780   1.000
    H24     H    0.33956   0.29064   0.64542   1.000
    H25     H    0.83955   0.29064   0.64542   1.000
    H26     H    0.41355   0.43151   0.64563   1.000
    H27     H    0.91354   0.43151   0.64563   1.000
    H28     H    0.34958   0.15916   0.78724   1.000
    H29     H    0.84957   0.15916   0.78724   1.000
    H30     H    0.45743   0.16758   0.78785   1.000
    H31     H    0.95742   0.16758   0.78784   1.000
    H32     H    0.16043   0.29064   0.14543   1.000
    H33     H    0.66042   0.29064   0.14543   1.000
    H34     H    0.08644   0.43150   0.14564   1.000
    H35     H    0.58643   0.43150   0.14564   1.000
    H36     H    0.15041   0.15916   0.28725   1.000
    H37     H    0.65040   0.15916   0.28724   1.000
    H38     H    0.04256   0.16758   0.28785   1.000
    H39     H    0.54255   0.16758   0.28785   1.000
    H40     H    0.33956   0.70940   0.14543   1.000
    H41     H    0.83955   0.70940   0.14543   1.000
    H42     H    0.41355   0.56853   0.14564   1.000
    H43     H    0.91354   0.56853   0.14564   1.000
    H44     H    0.34958   0.84088   0.28725   1.000
    H45     H    0.84957   0.84087   0.28724   1.000
    H46     H    0.45743   0.83246   0.28785   1.000
    H47     H    0.95742   0.83246   0.28785   1.000
    H48     H    0.33956   0.29064   0.35456   1.000
    H49     H    0.83955   0.29064   0.35456   1.000
    H50     H    0.41355   0.43151   0.35434   1.000
    H51     H    0.91354   0.43151   0.35434   1.000
    H52     H    0.34958   0.15916   0.21274   1.000
    H53     H    0.84957   0.15916   0.21270   1.000
    H54     H    0.45743   0.16758   0.21213   1.000
    H55     H    0.95743   0.16758   0.21213   1.000
    H56     H    0.16043   0.70939   0.35456   1.000
    H57     H    0.66042   0.70939   0.35456   1.000
    H58     H    0.08644   0.56853   0.35434   1.000
    H59     H    0.58643   0.56853   0.35434   1.000
    H60     H    0.15041   0.84087   0.21274   1.000
    H61     H    0.65040   0.84088   0.21273   1.000
    H62     H    0.04256   0.83246   0.21213   1.000
    H63     H    0.54255   0.83246   0.21213   1.000
    C64     C    0.26710   0.84521   0.92020   1.000
    C65     C    0.76709   0.84521   0.92020   1.000
    C66     C    0.35582   0.67903   0.91855   1.000
    C67     C    0.85581   0.67903   0.91855   1.000
    C68     C    0.39762   0.59905   0.91850   1.000
    C69     C    0.89761   0.59905   0.91850   1.000
    C70     C    0.46231   0.40447   0.92017   1.000
    C71     C    0.96230   0.40447   0.92017   1.000
    C72     C    0.37549   0.91091   0.72990   1.000
    C73     C    0.87549   0.91091   0.72999   1.000
    C74     C    0.43597   0.90722   0.72972   1.000
    C75     C    0.93597   0.90722   0.72971   1.000
    C76     C    0.23289   0.15482   0.92020   1.000
    C77     C    0.73288   0.15482   0.92020   1.000
    C78     C    0.14417   0.32101   0.91855   1.000
    C79     C    0.64416   0.32101   0.91855   1.000
    C80     C    0.10236   0.40098   0.91850   1.000
    C81     C    0.60236   0.40098   0.91850   1.000
    C82     C    0.03768   0.59557   0.92017   1.000
    C83     C    0.53767   0.59557   0.92017   1.000
    C84     C    0.12449   0.08912   0.72999   1.000
    C85     C    0.62448   0.08913   0.72999   1.000
    C86     C    0.06402   0.09282   0.72972   1.000
    C87     C    0.56401   0.09282   0.72970   1.000
    C88     C    0.23289   0.84521   0.57976   1.000
    C89     C    0.73288   0.84521   0.57976   1.000
    C90     C    0.14417   0.67902   0.58142   1.000
    C91     C    0.64416   0.67902   0.58142   1.000
    C92     C    0.10237   0.59905   0.58147   1.000
    C93     C    0.60236   0.59905   0.58147   1.000
    C94     C    0.03768   0.40446   0.57980   1.000
    C95     C    0.53767   0.40446   0.57980   1.000
    C96     C    0.83377   0.27924   0.49999   1.000
    C97     C    0.41902   0.44196   0.49999   1.000
    C98     C    0.91901   0.44196   0.49999   1.000
    C99     C    0.46657   0.52688   0.49999   1.000
    C100    C    0.12449   0.91091   0.76998   1.000
    C101    C    0.62448   0.91091   0.76990   1.000
    C102    C    0.06401   0.90722   0.77026   1.000
    C103    C    0.56400   0.90722   0.77020   1.000
    C104    C    0.26710   0.15483   0.57976   1.000
    C105    C    0.76709   0.15483   0.57976   1.000
    C106    C    0.35582   0.32101   0.58142   1.000
    C107    C    0.85581   0.32101   0.58142   1.000
    C108    C    0.39762   0.40099   0.58147   1.000
    C109    C    0.89761   0.40099   0.58147   1.000
    C110    C    0.46231   0.59557   0.57900   1.000
    C111    C    0.96230   0.59557   0.57900   1.000
    C112    C    0.37550   0.08913   0.76998   1.000
    C113    C    0.87549   0.08912   0.76998   1.000
    C114    C    0.43598   0.09282   0.77026   1.000
    C115    C    0.93597   0.09282   0.77025   1.000
    C116    C    0.23289   0.15482   0.07977   1.000
    C117    C    0.73288   0.15482   0.07977   1.000
    C118    C    0.14417   0.32101   0.08143   1.000
    C119    C    0.64416   0.32101   0.08143   1.000
    C120    C    0.10237   0.40098   0.08140   1.000
    C121    C    0.60236   0.40098   0.08140   1.000
    C122    C    0.03768   0.59557   0.07980   1.000
    C123    C    0.53768   0.59557   0.07980   1.000
    C124    C    0.12449   0.08912   0.26999   1.000
    C125    C    0.62449   0.08913   0.26998   1.000
    C126    C    0.06402   0.09282   0.27026   1.000
    C127    C    0.56401   0.09282   0.27026   1.000
    C128    C    0.26710   0.84521   0.07977   1.000
    C129    C    0.76709   0.84521   0.07977   1.000
    C130    C    0.35582   0.67903   0.08143   1.000
    C131    C    0.85581   0.67903   0.08143   1.000
    C132    C    0.39762   0.59905   0.08140   1.000
    C133    C    0.89761   0.59905   0.08140   1.000
    C134    C    0.46231   0.40447   0.07980   1.000
    C135    C    0.96230   0.40447   0.07980   1.000
    C136    C    0.37550   0.91091   0.26999   1.000
    C137    C    0.87549   0.91091   0.26999   1.000
    C138    C    0.43597   0.90722   0.27026   1.000
    C139    C    0.93597   0.90722   0.27026   1.000
    C140    C    0.26710   0.15483   0.42021   1.000
    C141    C    0.76709   0.15483   0.42021   1.000
    C142    C    0.35582   0.32101   0.41850   1.000
    C143    C    0.85581   0.32101   0.41850   1.000
    C144    C    0.39762   0.40099   0.41851   1.000
    C145    C    0.89761   0.40099   0.41851   1.000
    C146    C    0.46231   0.59557   0.42018   1.000
    C147    C    0.96230   0.59557   0.42018   1.000
    C148    C    0.37550   0.08913   0.23000   1.000
    C149    C    0.87549   0.08912   0.22999   1.000
    C150    C    0.43598   0.09282   0.22972   1.000
    C151    C    0.93597   0.09282   0.22972   1.000
    C152    C    0.23289   0.84521   0.42021   1.000
    C153    C    0.73288   0.84521   0.42021   1.000
    C154    C    0.14417   0.67902   0.41850   1.000
    C155    C    0.64416   0.67902   0.41850   1.000
    C156    C    0.10237   0.59905   0.41851   1.000
    C157    C    0.60236   0.59905   0.41851   1.000
    C158    C    0.03768   0.40446   0.42018   1.000
    C159    C    0.53767   0.40446   0.42018   1.000
    C160    C    0.12449   0.91091   0.22999   1.000
    C161    C    0.62448   0.91091   0.22999   1.000
    C162    C    0.06401   0.90722   0.22972   1.000
    C163    C    0.56400   0.90722   0.22972   1.000
    C164    C    0.46777   0.00000   0.74998   1.000
    C165    C    0.96776   0.00000   0.74999   1.000
    C166    C    0.03222   0.00000   0.74998   1.000
    C167    C    0.53221   0.00000   0.74999   1.000
    C168    C    0.03222   0.00000   0.20000   1.000
    C169    C    0.53221   0.00000   0.24998   1.000
    C170    C    0.46777   0.00000   0.25000   1.000
    C171    C    0.96776   0.00000   0.24999   1.000
    C172    C    0.28927   0.80385   0.00000   1.000
    C173    C    0.78926   0.80385   0.00000   1.000
    C174    C    0.33378   0.72080   0.99998   1.000
    C175    C    0.83377   0.72080   0.99998   1.000
    C176    C    0.41902   0.55808   0.00000   1.000
    C177    C    0.91901   0.55808   0.99998   1.000
    C178    C    0.46656   0.47316   0.99998   1.000
    C179    C    0.96656   0.47316   0.00000   1.000
    C180    C    0.21073   0.19618   0.00000   1.000
    C181    C    0.71072   0.19619   0.00000   1.000
    C182    C    0.16621   0.27924   0.00000   1.000
    C183    C    0.66620   0.27924   0.00000   1.000
    C184    C    0.08097   0.44196   0.00000   1.000
    C185    C    0.58096   0.44196   0.99998   1.000
    C186    C    0.03342   0.52688   0.00000   1.000
    C187    C    0.53342   0.52688   0.00000   1.000
    C188    C    0.21073   0.80385   0.49999   1.000
    C189    C    0.71072   0.80385   0.49999   1.000
    C190    C    0.16621   0.72079   0.49999   1.000
    C191    C    0.66620   0.72079   0.49999   1.000
    C192    C    0.08097   0.55807   0.49999   1.000
    C193    C    0.58096   0.55807   0.49999   1.000
    C194    C    0.03342   0.47315   0.49999   1.000
    C195    C    0.53341   0.47315   0.49999   1.000
    C196    C    0.28926   0.19619   0.49999   1.000
    C197    C    0.78925   0.19619   0.49999   1.000
    C198    C    0.33378   0.27924   0.49999   1.000
    C199    C    0.96656   0.52688   0.49999   1.000
    N200    N    0.24839   0.87782   0.85170   1.000
    N201    N    0.74838   0.87782   0.85170   1.000
    N202    N    0.45777   0.35158   0.85596   1.000
    N203    N    0.95777   0.35158   0.85596   1.000
    N204    N    0.25160   0.12221   0.85170   1.000
    N205    N    0.75159   0.12221   0.85170   1.000
    N206    N    0.04221   0.64845   0.85590   1.000
    N207    N    0.54220   0.64845   0.85590   1.000
    N208    N    0.25160   0.87782   0.64826   1.000
    N209    N    0.75159   0.87782   0.64826   1.000
    N210    N    0.04221   0.35158   0.64400   1.000
    N211    N    0.54220   0.35158   0.64400   1.000
    N212    N    0.24839   0.12221   0.64826   1.000
    N213    N    0.74838   0.12221   0.64826   1.000
    N214    N    0.45778   0.64846   0.64400   1.000
    N215    N    0.95777   0.64846   0.64400   1.000
    N216    N    0.25160   0.12221   0.14827   1.000
    N217    N    0.75159   0.12221   0.14827   1.000
    N218    N    0.04221   0.64845   0.14401   1.000
    N219    N    0.54220   0.64845   0.14401   1.000
    N220    N    0.24839   0.87782   0.14827   1.000
    N221    N    0.74838   0.87782   0.14827   1.000
    N222    N    0.45778   0.35158   0.14401   1.000
    N223    N    0.95777   0.35158   0.14401   1.000
    N224    N    0.24839   0.12221   0.35171   1.000
    N225    N    0.74838   0.12221   0.35171   1.000
    N226    N    0.45778   0.64846   0.35597   1.000
    N227    N    0.95777   0.64846   0.35597   1.000
    N228    N    0.25160   0.87782   0.35171   1.000
    N229    N    0.75159   0.87782   0.35171   1.000
    N230    N    0.04221   0.35158   0.35597   1.000
    N231    N    0.54220   0.35158   0.35597   1.000
    N232    N    0.34519   0.00000   0.74999   1.000
    N233    N    0.84519   0.00001   0.74997   1.000
    N234    N    0.15480   0.00000   0.70000   1.000
    N235    N    0.65479   0.00000   0.74998   1.000
    N236    N    0.15480   0.00000   0.24990   1.000
    N237    N    0.65479   1.00000   0.25000   1.000
    N238    N    0.34519   1.00000   0.24998   1.000
    N239    N    0.84519   0.00000   0.25000   1.000
loop_
    _geom_bond_atom_site_label_1
    _geom_bond_atom_site_label_2
    _geom_bond_distance
    _geom_bond_site_symmetry_2
    _ccdc_geom_bond_type
    C172   C128      1.38940      .   S
    C172   C64       1.38979  1_554   S
    C172   C174      1.45762  1_554   S
    C173   C129      1.38941      .   S
    C173   C65       1.38979  1_554   S
    C173   C175      1.45762  1_554   S
    C176   C132      1.40206      .   S
    C176   C68       1.40336  1_554   S
    C176   C178      1.52351  1_554   S
    C179   C186      1.67594  1_655   S
    C179   C135      1.46739      .   S
    C179   C71       1.46775  1_554   S
    C179   C177      1.52353  1_554   S
    C180   C182      1.45765      .   S
    C180   C116      1.38940      .   S
    C180   C76       1.38977  1_554   S
    C181   C183      1.45764      .   S
    C181   C117      1.38940      .   S
    C181   C77       1.38977  1_554   S
    C182   C118      1.41137      .   S
    C182   C78       1.41164  1_554   S
    C183   C119      1.41137      .   S
    C183   C79       1.41165  1_554   S
    C184   C186      1.52352      .   S
    C184   C120      1.40207      .   S
    C184   C80       1.40333  1_554   S
    C186   C122      1.46739      .   S
    C186   C82       1.46775  1_554   S
    C187   C123      1.46739      .   S
    C187   C83       1.46774  1_554   S
    C187   C178      1.67558  1_554   S
    C187   C185      1.52351  1_554   S
    C116   N216      1.17737      .   S
    C128   N220      1.17737      .   S
    C129   N221      1.17737      .   S
    C117   N217      1.17737      .   S
    C122   N218      1.16546      .   S
    C123   N219      1.16546      .   S
    C135   N223      1.16546      .   S
    C134   N222      1.16546      .   S
    C134   C178      1.46762  1_554   S
    C121   C119      1.38668      .   S
    C121   H35       1.09082      .   S
    C121   C185      1.40233  1_554   S
    C132   C130      1.38668      .   S
    C132   H42       1.09082      .   S
    C133   C131      1.38667      .   S
    C133   H43       1.09082      .   S
    C133   C177      1.40232  1_554   S
    C120   C118      1.38667      .   S
    C120   H34       1.09082      .   S
    C130   H40       1.08960      .   S
    C130   C174      1.41164  1_554   S
    C119   H33       1.08960      .   S
    C118   H32       1.08960      .   S
    C131   H41       1.08961      .   S
    C131   C175      1.41164  1_554   S
    C168   C162      1.44078  1_545   S
    C168   C171      1.65569  1_455   S
    C168   C126      1.72366      .   S
    H54    C150      1.08923      .   S
    H55    C151      1.08923      .   S
    H62    C162      1.08922      .   S
    H63    C163      1.08922      .   S
    H53    C149      1.09008      .   S
    H61    C161      1.08997      .   S
    H52    C148      1.08996      .   S
    H60    C160      1.08994      .   S
    C150   C148      1.38925      .   S
    C150   C170      1.40453      .   S
    C151   C149      1.38925      .   S
    C151   C171      1.40455      .   S
    C162   C160      1.38925      .   S
    C163   C161      1.38928      .   S
    C163   C169      1.40416  1_565   S
    C149   N239      1.34769      .   S
    C160   N236      1.34707  1_565   S
    C161   N237      1.34731      .   S
    C148   N238      1.34767  1_545   S
    N236   C124      1.34796      .   S
    C169   C170      1.47948      .   S
    C169   C127      1.40451      .   S
    N238   C136      1.34730      .   S
    C171   C139      1.40419  1_545   S
    N239   C137      1.34731  1_545   S
    C170   C138      1.40419  1_545   S
    N237   C125      1.34765  1_565   S
    C125   C127      1.38927      .   S
    C125   H37       1.08996      .   S
    C124   C126      1.38925      .   S
    C124   H36       1.08997      .   S
    C136   C138      1.38925      .   S
    C136   H44       1.08996      .   S
    C137   C139      1.38925      .   S
    C137   H45       1.08994      .   S
    C127   H39       1.08923      .   S
    C126   H38       1.08922      .   S
    C138   H46       1.08923      .   S
    C139   H47       1.08923      .   S
    N228   C152      1.17737      .   S
    N224   C140      1.17737      .   S
    N225   C141      1.17737      .   S
    N229   C153      1.17737      .   S
    H50    C144      1.08990      .   S
    H51    C145      1.08990      .   S
    H58    C156      1.08991      .   S
    H59    C157      1.08990      .   S
    H48    C142      1.08882      .   S
    H49    C143      1.08882      .   S
    H56    C154      1.08882      .   S
    H57    C155      1.08883      .   S
    N227   C147      1.16546      .   S
    N230   C158      1.16547      .   S
    N231   C159      1.16546      .   S
    N226   C146      1.16546      .   S
    C142   C144      1.38668      .   S
    C142   C198      1.41214      .   S
    C143   C145      1.38668      .   S
    C143   C96       1.41214      .   S
    C155   C157      1.38668      .   S
    C155   C191      1.41214      .   S
    C154   C156      1.38668      .   S
    C154   C190      1.41213      .   S
    C145   C98       1.40309      .   S
    C157   C193      1.40309      .   S
    C156   C192      1.40309      .   S
    C144   C97       1.40309      .   S
    C159   C195      1.46751      .   S
    C158   C194      1.46751      .   S
    C146   C99       1.46751      .   S
    C147   C199      1.46750      .   S
    C140   C196      1.38952      .   S
    C153   C189      1.38953      .   S
    C152   C188      1.38953      .   S
    C141   C197      1.38953      .   S
    C98    C199      1.52351      .   S
    C98    C109      1.40310      .   S
    C189   C191      1.45763      .   S
    C189   C89       1.38941      .   S
    C190   C188      1.45764      .   S
    C190   C90       1.41137      .   S
    C197   C96       1.45764      .   S
    C197   C105      1.38940      .   S
    C198   C196      1.45764      .   S
    C198   C106      1.41138      .   S
    C96    C107      1.41138      .   S
    C191   C91       1.41138      .   S
    C192   C194      1.52353      .   S
    C192   C92       1.40309      .   S
    C97    C99       1.52351      .   S
    C97    C108      1.40309      .   S
    C99    C195      1.67555      .   S
    C99    C110      1.45793      .   S
    C199   C194      1.67594  1_655   S
    C199   C111      1.45793      .   S
    C196   C104      1.38940      .   S
    C195   C193      1.52351      .   S
    C195   C95       1.46751      .   S
    C194   C94       1.46750      .   S
    C188   C88       1.38941      .   S
    C193   C93       1.40309      .   S
    C111   N215      1.17508      .   S
    C110   N214      1.17508      .   S
    C88    N208      1.17737      .   S
    C89    N209      1.17737      .   S
    C104   N212      1.17737      .   S
    C105   N213      1.17738      .   S
    C95    N211      1.16534      .   S
    C94    N210      1.16534      .   S
    C107   C109      1.38667      .   S
    C107   H25       1.08960      .   S
    C106   C108      1.38668      .   S
    C106   H24       1.08960      .   S
    C91    C93       1.38668      .   S
    C91    H17       1.08960      .   S
    C90    C92       1.38667      .   S
    C90    H16       1.08960      .   S
    C108   H26       1.08977      .   S
    C109   H27       1.08978      .   S
    C92    H18       1.08978      .   S
    C93    H19       1.08977      .   S
    N234   C84       1.38791      .   S
    N234   C100      1.67554  1_545   S
    H7     C75       1.08922      .   S
    H14    C86       1.08922      .   S
    H15    C87       1.08916      .   S
    H6     C74       1.08922      .   S
    H12    C84       1.08997      .   S
    H13    C85       1.08996      .   S
    H5     C73       1.08996      .   S
    H4     C72       1.08966      .   S
    C87    C85       1.38925      .   S
    C87    C167      1.40458      .   S
    C75    C73       1.38925      .   S
    C75    C165      1.40418  1_565   S
    C74    C72       1.38925      .   S
    C74    C164      1.40417  1_565   S
    C86    C84       1.38925      .   S
    C86    C166      1.40455      .   S
    C72    N232      1.34757  1_565   S
    C73    N233      1.34730  1_565   S
    C85    N235      1.34768      .   S
    N233   C113      1.34765      .   S
    N235   C101      1.34705  1_545   S
    C164   C167      1.47948      .   S
    C164   C114      1.40453      .   S
    C166   C165      1.47990  1_455   S
    C166   C102      1.40416  1_545   S
    N232   C112      1.34768      .   S
    C165   C115      1.40453      .   S
    C167   C103      1.40400  1_545   S
    C101   C103      1.38925      .   S
    C101   H21       1.09025      .   S
    C113   C115      1.38925      .   S
    C113   H29       1.08998      .   S
    C112   C114      1.38925      .   S
    C112   H28       1.08998      .   S
    C100   C102      1.38927      .   S
    C100   H20       1.08995      .   S
    C103   H23       1.08925      .   S
    C115   H31       1.08922      .   S
    C102   H22       1.08922      .   S
    C114   H30       1.08922      .   S
    N200   C64       1.17737      .   S
    N201   C65       1.17737      .   S
    N204   C76       1.17737      .   S
    N205   C77       1.17737      .   S
    H2     C68       1.08978      .   S
    H10    C80       1.08978      .   S
    H3     C69       1.08977      .   S
    H11    C81       1.08977      .   S
    H0     C66       1.08960      .   S
    H9     C79       1.08960      .   S
    H8     C78       1.08960      .   S
    H1     C67       1.08960      .   S
    N207   C83       1.16619      .   S
    N206   C82       1.16619      .   S
    N203   C71       1.16546      .   S
    N202   C70       1.16547      .   S
    C80    C78       1.38668      .   S
    C68    C66       1.38667      .   S
    C69    C67       1.38668      .   S
    C69    C177      1.40309      .   S
    C81    C79       1.38668      .   S
    C81    C185      1.40309      .   S
    C66    C174      1.41137      .   S
    C67    C175      1.41137      .   S
    C70    C178      1.46751      .   S
