# CIF file generated by openbabel 2.4.90, see http://openbabel.sf.net
data_I
_chemical_name_common ''
_cell_length_a 13.971
_cell_length_b 15.661
_cell_length_c 19.606
_cell_angle_alpha 89.992
_cell_angle_beta 90.005
_cell_angle_gamma 90.014
_space_group_name_H-M_alt 'P 1'
_space_group_name_Hall 'P 1'
loop_
    _symmetry_equiv_pos_as_xyz
    x,y,z
loop_
    _atom_site_label
    _atom_site_type_symbol
    _atom_site_fract_x
    _atom_site_fract_y
    _atom_site_fract_z
    _atom_site_occupancy
    Lv0     Lv   0.69814   0.26320   0.83830   1.000
    Lv1     Lv   0.91120   0.80422   0.90200   1.000
    Lv2     Lv   0.08906   0.30481   0.59791   1.000
    Lv3     Lv   0.30184   0.76323   0.66142   1.000
    Lv4     Lv   0.80178   0.73688   0.33854   1.000
    Lv5     Lv   0.58839   0.19592   0.40189   1.000
    Lv6     Lv   0.41154   0.69560   0.09807   1.000
    Lv7     Lv   0.19817   0.23611   0.16147   1.000
