# CIF file generated by openbabel 2.4.90, see http://openbabel.sf.net
data_I
_chemical_name_common ''
_cell_length_a 13.971
_cell_length_b 15.661
_cell_length_c 19.606
_cell_angle_alpha 89.992
_cell_angle_beta 90.005
_cell_angle_gamma 90.014
_space_group_name_H-M_alt 'P 1'
_space_group_name_Hall 'P 1'
loop_
    _symmetry_equiv_pos_as_xyz
    x,y,z
loop_
    _atom_site_label
    _atom_site_type_symbol
    _atom_site_fract_x
    _atom_site_fract_y
    _atom_site_fract_z
    _atom_site_occupancy
    C0      C    0.69089   0.86001   0.02850   1.000
    C1      C    0.80967   0.14076   0.52817   1.000
    C2      C    0.30922   0.36028   0.47142   1.000
    C3      C    0.19068   0.63984   0.97150   1.000
    C4      C    0.74330   0.96456   0.89026   1.000
    C5      C    0.65777   0.91286   0.29604   1.000
    C6      C    0.55458   0.76863   0.36232   1.000
    C7      C    0.76303   0.82857   0.88895   1.000
    C8      C    0.91153   0.78638   0.94209   1.000
    C9      C    0.06132   0.87446   0.09360   1.000
    C10     C    0.88993   0.95148   0.76557   1.000
    C11     C    0.97192   0.89441   0.66194   1.000
    C12     C    0.11529   0.94209   0.98719   1.000
    C13     C    0.82197   0.69533   0.89733   1.000
    C14     C    0.97372   0.60416   0.67880   1.000
    C15     C    0.00230   0.01828   0.07069   1.000
    C16     C    0.99404   0.05807   0.98620   1.000
    C17     C    0.83904   0.00917   0.97190   1.000
    C18     C    0.83549   0.99506   0.06154   1.000
    C19     C    0.70679   0.69955   0.37439   1.000
    C20     C    0.98896   0.95443   0.89080   1.000
    C21     C    0.04441   0.85287   0.89680   1.000
    C22     C    0.65804   0.94012   0.17042   1.000
    C23     C    0.81123   0.54977   0.10301   1.000
    C24     C    0.77650   0.62278   0.31259   1.000
    C25     C    0.92319   0.49567   0.76561   1.000
    C26     C    0.74904   0.69093   0.06503   1.000
    C27     C    0.89675   0.86074   0.10718   1.000
    C28     C    0.90338   0.76909   0.05387   1.000
    C29     C    0.82877   0.49015   0.98027   1.000
    C30     C    0.89534   0.58805   0.97258   1.000
    C31     C    0.76863   0.58728   0.95631   1.000
    C32     C    0.89242   0.41786   0.29238   1.000
    C33     C    0.91303   0.52822   0.31304   1.000
    C34     C    0.79669   0.48147   0.32580   1.000
    C35     C    0.76371   0.88625   0.38699   1.000
    C36     C    0.72466   0.75382   0.49549   1.000
    C37     C    0.71497   0.86571   0.49969   1.000
    C38     C    0.00950   0.84980   0.39499   1.000
    C39     C    0.91869   0.92459   0.37378   1.000
    C40     C    0.85378   0.66724   0.40639   1.000
    C41     C    0.97393   0.69984   0.39699   1.000
    C42     C    0.98607   0.73360   0.51461   1.000
    C43     C    0.87598   0.67946   0.52460   1.000
    C44     C    0.85575   0.82569   0.56932   1.000
    C45     C    0.99044   0.89031   0.50862   1.000
    C46     C    0.75747   0.03609   0.39046   1.000
    C47     C    0.84245   0.08723   0.79587   1.000
    C48     C    0.94543   0.23108   0.86203   1.000
    C49     C    0.73706   0.17220   0.38882   1.000
    C50     C    0.58859   0.21379   0.44180   1.000
    C51     C    0.43906   0.12576   0.59348   1.000
    C52     C    0.61146   0.04862   0.26528   1.000
    C53     C    0.52931   0.10523   0.16152   1.000
    C54     C    0.38507   0.05805   0.48711   1.000
    C55     C    0.67643   0.30510   0.39700   1.000
    C56     C    0.52531   0.39544   0.17800   1.000
    C57     C    0.49817   0.98212   0.57073   1.000
    C58     C    0.50636   0.94214   0.48637   1.000
    C59     C    0.66130   0.99116   0.47186   1.000
    C60     C    0.66500   0.00531   0.56145   1.000
    C61     C    0.79332   0.30055   0.87411   1.000
    C62     C    0.51131   0.04566   0.39073   1.000
    C63     C    0.45587   0.14720   0.39672   1.000
    C64     C    0.84229   0.05997   0.67023   1.000
    C65     C    0.68936   0.45033   0.60260   1.000
    C66     C    0.72299   0.37714   0.81226   1.000
    C67     C    0.57403   0.50416   0.26554   1.000
    C68     C    0.75165   0.30922   0.56475   1.000
    C69     C    0.60359   0.13970   0.60702   1.000
    C70     C    0.59683   0.23127   0.55361   1.000
    C71     C    0.66680   0.50985   0.48065   1.000
    C72     C    0.60209   0.41100   0.47273   1.000
    C73     C    0.72876   0.41376   0.45635   1.000
    C74     C    0.60541   0.58142   0.79156   1.000
    C75     C    0.58515   0.47084   0.81164   1.000
    C76     C    0.70089   0.51813   0.82570   1.000
    C77     C    0.73612   0.11393   0.88682   1.000
    C78     C    0.77549   0.24633   0.99527   1.000
    C79     C    0.78511   0.13443   0.99948   1.000
    C80     C    0.49043   0.15066   0.89497   1.000
    C81     C    0.58108   0.07579   0.87366   1.000
    C82     C    0.64645   0.33303   0.90632   1.000
    C83     C    0.52622   0.30061   0.89690   1.000
    C84     C    0.51413   0.26668   0.01455   1.000
    C85     C    0.62427   0.32075   0.02458   1.000
    C86     C    0.64446   0.17447   0.06918   1.000
    C87     C    0.50966   0.10994   0.00857   1.000
    C88     C    0.25759   0.46447   0.60960   1.000
    C89     C    0.34218   0.41296   0.20379   1.000
    C90     C    0.44542   0.26869   0.13760   1.000
    C91     C    0.23699   0.32844   0.61088   1.000
    C92     C    0.08830   0.28716   0.55776   1.000
    C93     C    0.93899   0.37647   0.40635   1.000
    C94     C    0.11022   0.45161   0.73433   1.000
    C95     C    0.02803   0.39450   0.83789   1.000
    C96     C    0.88536   0.44387   0.51289   1.000
    C97     C    0.17793   0.19555   0.60248   1.000
    C98     C    0.02609   0.10427   0.82092   1.000
    C99     C    0.99875   0.51987   0.42955   1.000
    C100    C    0.00733   0.55938   0.51405   1.000
    C101    C    0.16200   0.50971   0.52823   1.000
    C102    C    0.16542   0.49587   0.43860   1.000
    C103    C    0.29327   0.19946   0.12573   1.000
    C104    C    0.01169   0.45531   0.60935   1.000
    C105    C    0.95571   0.35399   0.60297   1.000
    C106    C    0.34198   0.44041   0.32939   1.000
    C107    C    0.18876   0.05014   0.39733   1.000
    C108    C    0.22352   0.12278   0.18765   1.000
    C109    C    0.07669   0.99579   0.73423   1.000
    C110    C    0.25093   0.19141   0.43511   1.000
    C111    C    0.10346   0.36189   0.39270   1.000
    C112    C    0.09617   0.27017   0.44595   1.000
    C113    C    0.17148   0.99029   0.51965   1.000
    C114    C    0.10485   0.08815   0.52723   1.000
    C115    C    0.23151   0.08749   0.54360   1.000
    C116    C    0.10763   0.91786   0.20800   1.000
    C117    C    0.08713   0.00000   0.18720   1.000
    C118    C    0.20346   0.98141   0.17468   1.000
    C119    C    0.23613   0.38607   0.11289   1.000
    C120    C    0.27514   0.25347   0.00454   1.000
    C121    C    0.28486   0.36536   0.00000   1.000
    C122    C    0.99038   0.34930   0.10506   1.000
    C123    C    0.08112   0.42421   0.12622   1.000
    C124    C    0.14630   0.16694   0.09370   1.000
    C125    C    0.02611   0.19937   0.10319   1.000
    C126    C    0.01374   0.23312   0.98555   1.000
    C127    C    0.12383   0.17905   0.97546   1.000
    C128    C    0.14399   0.32527   0.93070   1.000
    C129    C    0.00936   0.38987   0.99141   1.000
    C130    C    0.24199   0.53606   0.10955   1.000
    C131    C    0.15746   0.58717   0.70388   1.000
    C132    C    0.05450   0.73104   0.63784   1.000
    C133    C    0.26288   0.67219   0.11103   1.000
    C134    C    0.41152   0.71331   0.05801   1.000
    C135    C    0.56125   0.62524   0.90678   1.000
    C136    C    0.38832   0.54851   0.23469   1.000
    C137    C    0.47065   0.60513   0.33838   1.000
    C138    C    0.61485   0.55743   0.01320   1.000
    C139    C    0.32361   0.80491   0.10244   1.000
    C140    C    0.47477   0.89534   0.32131   1.000
    C141    C    0.50177   0.48159   0.92943   1.000
    C142    C    0.49351   0.44154   0.01379   1.000
    C143    C    0.33864   0.49070   0.02836   1.000
    C144    C    0.33493   0.50461   0.93873   1.000
    C145    C    0.20657   0.80063   0.62585   1.000
    C146    C    0.48823   0.54506   0.10941   1.000
    C147    C    0.54394   0.64653   0.10352   1.000
    C148    C    0.15765   0.55965   0.82949   1.000
    C149    C    0.31062   0.94995   0.89750   1.000
    C150    C    0.27690   0.87716   0.68780   1.000
    C151    C    0.42600   0.00405   0.23425   1.000
    C152    C    0.24835   0.80870   0.93525   1.000
    C153    C    0.39675   0.63889   0.89298   1.000
    C154    C    0.40330   0.73062   0.94622   1.000
    C155    C    0.33294   0.00969   0.01919   1.000
    C156    C    0.39772   0.91088   0.02708   1.000
    C157    C    0.27108   0.91357   0.04359   1.000
    C158    C    0.39448   0.08143   0.70864   1.000
    C159    C    0.41470   0.97089   0.68845   1.000
    C160    C    0.29895   0.01817   0.67442   1.000
    C161    C    0.26384   0.61406   0.61302   1.000
    C162    C    0.22467   0.74669   0.50467   1.000
    C163    C    0.21488   0.63481   0.50036   1.000
    C164    C    0.50954   0.65092   0.60504   1.000
    C165    C    0.41888   0.57598   0.62630   1.000
    C166    C    0.35352   0.83321   0.59368   1.000
    C167    C    0.47374   0.80085   0.60310   1.000
    C168    C    0.48599   0.76702   0.48552   1.000
    C169    C    0.37587   0.82106   0.47544   1.000
    C170    C    0.35568   0.67483   0.43077   1.000
    C171    C    0.49042   0.61030   0.49143   1.000
    C172    C    0.67942   0.86234   0.26113   1.000
    C173    C    0.82784   0.86585   0.87633   1.000
    C174    C    0.89915   0.85517   0.93616   1.000
    C175    C    0.70574   0.78330   0.28671   1.000
    C176    C    0.93053   0.71202   0.73996   1.000
    C177    C    0.02821   0.85253   0.04583   1.000
    C178    C    0.73081   0.73987   0.16757   1.000
    C179    C    0.87200   0.82886   0.81181   1.000
    C180    C    0.88614   0.73915   0.80241   1.000
    C181    C    0.90171   0.88322   0.76034   1.000
    C182    C    0.94727   0.85089   0.70182   1.000
    C183    C    0.03932   0.92533   0.99256   1.000
    C184    C    0.85846   0.67629   0.85080   1.000
    C185    C    0.94188   0.62332   0.72724   1.000
    C186    C    0.98088   0.00170   0.01830   1.000
    C187    C    0.87387   0.97720   0.01478   1.000
    C188    C    0.69782   0.76828   0.36330   1.000
    C189    C    0.87524   0.59067   0.83790   1.000
    C190    C    0.73569   0.71960   0.23906   1.000
    C191    C    0.99714   0.89779   0.92358   1.000
    C192    C    0.67927   0.87814   0.19077   1.000
    C193    C    0.78976   0.59826   0.13977   1.000
    C194    C    0.77076   0.63803   0.25876   1.000
    C195    C    0.91472   0.56383   0.77487   1.000
    C196    C    0.75651   0.67654   0.11918   1.000
    C197    C    0.79906   0.57907   0.21000   1.000
    C198    C    0.91948   0.83749   0.05688   1.000
    C199    C    0.08422   0.77348   0.02344   1.000
    C200    C    0.83537   0.55032   0.95211   1.000
    C201    C    0.86070   0.48176   0.29325   1.000
    C202    C    0.77372   0.81946   0.40285   1.000
    C203    C    0.76076   0.81381   0.48123   1.000
    C204    C    0.93487   0.86830   0.40510   1.000
    C205    C    0.90447   0.71869   0.41871   1.000
    C206    C    0.91131   0.73202   0.49710   1.000
    C207    C    0.86075   0.81651   0.51400   1.000
    C208    C    0.92085   0.88987   0.48209   1.000
    C209    C    0.87718   0.97754   0.49685   1.000
    C210    C    0.82078   0.13773   0.76090   1.000
    C211    C    0.67253   0.13453   0.37618   1.000
    C212    C    0.60112   0.14504   0.43599   1.000
    C213    C    0.79433   0.21674   0.78650   1.000
    C214    C    0.56896   0.28781   0.23960   1.000
    C215    C    0.47210   0.14772   0.54569   1.000
    C216    C    0.76948   0.26021   0.66733   1.000
    C217    C    0.62819   0.17129   0.31161   1.000
    C218    C    0.61328   0.26092   0.30224   1.000
    C219    C    0.59913   0.11680   0.26005   1.000
    C220    C    0.55348   0.14888   0.20140   1.000
    C221    C    0.46103   0.07488   0.49248   1.000
    C222    C    0.63999   0.32390   0.35080   1.000
    C223    C    0.55694   0.37644   0.22697   1.000
    C224    C    0.51952   0.99859   0.51831   1.000
    C225    C    0.62653   0.02313   0.51471   1.000
    C226    C    0.80221   0.23179   0.86310   1.000
    C227    C    0.62224   0.40940   0.33805   1.000
    C228    C    0.76435   0.28043   0.73880   1.000
    C229    C    0.50316   0.10232   0.42346   1.000
    C230    C    0.82103   0.12194   0.69057   1.000
    C231    C    0.71065   0.40181   0.63941   1.000
    C232    C    0.72904   0.36195   0.75844   1.000
    C233    C    0.58310   0.43605   0.27477   1.000
    C234    C    0.74399   0.32355   0.61889   1.000
    C235    C    0.70093   0.42092   0.70981   1.000
    C236    C    0.58082   0.16287   0.55670   1.000
    C237    C    0.41592   0.22668   0.52329   1.000
    C238    C    0.66131   0.44972   0.45232   1.000
    C239    C    0.63756   0.51769   0.79257   1.000
    C240    C    0.72624   0.18073   0.90266   1.000
    C241    C    0.73933   0.18636   0.98100   1.000
    C242    C    0.56503   0.13206   0.90500   1.000
    C243    C    0.59567   0.28164   0.91863   1.000
    C244    C    0.58888   0.26824   0.99700   1.000
    C245    C    0.63939   0.18370   0.01387   1.000
    C246    C    0.57919   0.11040   0.98197   1.000
    C247    C    0.62292   0.02273   0.99662   1.000
    C248    C    0.32058   0.36248   0.23878   1.000
    C249    C    0.17249   0.36605   0.62361   1.000
    C250    C    0.10104   0.35589   0.56378   1.000
    C251    C    0.29427   0.28338   0.21330   1.000
    C252    C    0.06934   0.21216   0.75984   1.000
    C253    C    0.97195   0.35426   0.45407   1.000
    C254    C    0.26922   0.24014   0.33250   1.000
    C255    C    0.12807   0.32903   0.68805   1.000
    C256    C    0.11379   0.23931   0.69741   1.000
    C257    C    0.09834   0.38335   0.73952   1.000
    C258    C    0.05267   0.35100   0.79800   1.000
    C259    C    0.96125   0.42686   0.50700   1.000
    C260    C    0.14143   0.17647   0.64899   1.000
    C261    C    0.05796   0.12345   0.77257   1.000
    C262    C    0.02011   0.50305   0.48190   1.000
    C263    C    0.12696   0.47805   0.48534   1.000
    C264    C    0.30217   0.26823   0.13671   1.000
    C265    C    0.12468   0.09083   0.66185   1.000
    C266    C    0.26435   0.21974   0.26104   1.000
    C267    C    0.00327   0.39886   0.57640   1.000
    C268    C    0.32075   0.37839   0.30910   1.000
    C269    C    0.21024   0.09857   0.36050   1.000
    C270    C    0.22927   0.13811   0.24146   1.000
    C271    C    0.08516   0.06397   0.72496   1.000
    C272    C    0.24349   0.17691   0.38098   1.000
    C273    C    0.20095   0.07924   0.29011   1.000
    C274    C    0.08056   0.33865   0.44302   1.000
    C275    C    0.91535   0.27556   0.47644   1.000
    C276    C    0.16479   0.05047   0.54780   1.000
    C277    C    0.13939   0.98176   0.20717   1.000
    C278    C    0.22618   0.31924   0.09713   1.000
    C279    C    0.23907   0.31347   0.01875   1.000
    C280    C    0.06498   0.36789   0.09494   1.000
    C281    C    0.09551   0.21830   0.08140   1.000
    C282    C    0.08853   0.23160   0.00000   1.000
    C283    C    0.13904   0.31611   0.98603   1.000
    C284    C    0.07896   0.38945   0.01793   1.000
    C285    C    0.12268   0.47711   0.00000   1.000
    C286    C    0.17912   0.63761   0.73888   1.000
    C287    C    0.32723   0.63438   0.12377   1.000
    C288    C    0.39880   0.64458   0.06401   1.000
    C289    C    0.20560   0.71668   0.71341   1.000
    C290    C    0.43105   0.78769   0.26016   1.000
    C291    C    0.52804   0.64717   0.95451   1.000
    C292    C    0.23049   0.75990   0.83261   1.000
    C293    C    0.37167   0.67116   0.18830   1.000
    C294    C    0.38669   0.76079   0.19762   1.000
    C295    C    0.40074   0.61669   0.23988   1.000
    C296    C    0.44647   0.64877   0.29843   1.000
    C297    C    0.53892   0.57429   0.00774   1.000
    C298    C    0.36001   0.82377   0.14903   1.000
    C299    C    0.44311   0.87633   0.27280   1.000
    C300    C    0.48041   0.49803   0.98185   1.000
    C301    C    0.37343   0.52255   0.98540   1.000
    C302    C    0.19772   0.73184   0.63682   1.000
    C303    C    0.37776   0.90927   0.16177   1.000
    C304    C    0.23558   0.78028   0.76115   1.000
    C305    C    0.49662   0.60174   0.07670   1.000
    C306    C    0.17891   0.62167   0.80920   1.000
    C307    C    0.28932   0.90149   0.86067   1.000
    C308    C    0.27088   0.86185   0.74160   1.000
    C309    C    0.41693   0.93593   0.22504   1.000
    C310    C    0.25599   0.82316   0.88112   1.000
    C311    C    0.29902   0.92074   0.79029   1.000
    C312    C    0.41936   0.66221   0.94329   1.000
    C313    C    0.58408   0.72625   0.97693   1.000
    C314    C    0.33853   0.94958   0.04750   1.000
    C315    C    0.36232   0.01769   0.70760   1.000
    C316    C    0.27373   0.68089   0.59724   1.000
    C317    C    0.26073   0.68666   0.51887   1.000
    C318    C    0.43495   0.63229   0.59490   1.000
    C319    C    0.40433   0.78187   0.58138   1.000
    C320    C    0.41122   0.76853   0.50000   1.000
    C321    C    0.36071   0.68400   0.48609   1.000
    C322    C    0.42086   0.61068   0.51000   1.000
    C323    C    0.37721   0.52297   0.50300   1.000
    C324    C    0.70287   0.81895   0.14466   1.000
    C325    C    0.96235   0.76811   0.69145   1.000
    C326    C    0.86043   0.88297   0.00450   1.000
    C327    C    0.87281   0.79704   0.38303   1.000
    C328    C    0.79751   0.18115   0.64444   1.000
    C329    C    0.53779   0.23157   0.19108   1.000
    C330    C    0.63988   0.11736   0.50440   1.000
    C331    C    0.62716   0.20328   0.88291   1.000
    C332    C    0.29717   0.31927   0.35531   1.000
    C333    C    0.03753   0.26822   0.80835   1.000
    C334    C    0.13986   0.38373   0.49542   1.000
    C335    C    0.12713   0.29672   0.11700   1.000
    C336    C    0.20248   0.68078   0.85541   1.000
    C337    C    0.46222   0.73146   0.30877   1.000
    C338    C    0.36017   0.61680   0.99559   1.000
    C339    C    0.37279   0.70345   0.61705   1.000
    C340    C    0.80266   0.95274   0.86420   1.000
    C341    C    0.60765   0.79667   0.38886   1.000
    C342    C    0.85448   0.52592   0.88265   1.000
    C343    C    0.83724   0.50071   0.22371   1.000
    C344    C    0.17513   0.77444   0.03288   1.000
    C345    C    0.04160   0.71178   0.99438   1.000
    C346    C    0.85025   0.02628   0.44783   1.000
    C347    C    0.87038   0.00000   0.55888   1.000
    C348    C    0.69835   0.04780   0.36415   1.000
    C349    C    0.89232   0.20332   0.88872   1.000
    C350    C    0.64164   0.47418   0.38295   1.000
    C351    C    0.66256   0.49923   0.72321   1.000
    C352    C    0.32501   0.22559   0.53271   1.000
    C353    C    0.45842   0.28847   0.49428   1.000
    C354    C    0.64996   0.97410   0.94761   1.000
    C355    C    0.62972   0.99930   0.05868   1.000
    C356    C    0.19841   0.45271   0.63592   1.000
    C357    C    0.39229   0.29670   0.11110   1.000
    C358    C    0.14550   0.02606   0.61720   1.000
    C359    C    0.16275   0.00000   0.27671   1.000
    C360    C    0.82451   0.27707   0.46712   1.000
    C361    C    0.95776   0.21365   0.50543   1.000
    C362    C    0.14961   0.52587   0.05214   1.000
    C363    C    0.12959   0.50045   0.94111   1.000
    C364    C    0.30103   0.54776   0.13597   1.000
    C365    C    0.10763   0.70331   0.61117   1.000
    C366    C    0.35832   0.97407   0.11688   1.000
    C367    C    0.33740   0.99910   0.77696   1.000
    C368    C    0.67504   0.72523   0.96768   1.000
    C369    C    0.54146   0.78811   0.00571   1.000
    C370    C    0.35028   0.47424   0.55220   1.000
    C371    C    0.37038   0.49958   0.44124   1.000
    O372    O    0.09202   0.22495   0.04070   1.000
    O373    O    0.10618   0.20532   0.98773   1.000
    O374    O    0.05113   0.23236   0.99277   1.000
    O375    O    0.11378   0.27386   0.99301   1.000
    O376    O    0.10082   0.43328   0.00896   1.000
    O377    O    0.13614   0.50149   0.02607   1.000
    O378    O    0.12614   0.48878   0.97056   1.000
    O379    O    0.26196   0.33942   0.00937   1.000
    O380    O    0.86715   0.93008   0.00964   1.000
    O381    O    0.77566   0.87149   0.01650   1.000
    O382    O    0.88995   0.86023   0.03069   1.000
    O383    O    0.87979   0.86907   0.97033   1.000
    O384    O    0.25710   0.28347   0.01164   1.000
    O385    O    0.61618   0.82406   0.01710   1.000
    O386    O    0.56277   0.75718   0.99132   1.000
    O387    O    0.57688   0.56586   0.01047   1.000
    O388    O    0.51777   0.58801   0.04222   1.000
    O389    O    0.53348   0.61073   0.98112   1.000
    O390    O    0.50967   0.53616   0.99479   1.000
    O391    O    0.54442   0.11017   0.99527   1.000
    O392    O    0.48696   0.46978   0.99782   1.000
    O393    O    0.64192   0.17908   0.04152   1.000
    O394    O    0.68936   0.18503   0.99743   1.000
    O395    O    0.60929   0.14705   0.99792   1.000
    O396    O    0.61413   0.22597   0.00543   1.000
    O397    O    0.55150   0.26746   0.00577   1.000
    O398    O    0.92737   0.98945   0.01654   1.000
    O399    O    0.85468   0.98613   0.03816   1.000
    O400    O    0.85645   0.99318   0.99334   1.000
    O401    O    0.07197   0.37867   0.05644   1.000
    O402    O    0.10900   0.35278   0.00198   1.000
    O403    O    0.04416   0.38966   0.00467   1.000
    O404    O    0.99159   0.00999   0.04450   1.000
    O405    O    0.98746   0.02988   0.00225   1.000
    O406    O    0.01010   0.96351   0.00543   1.000
    O407    O    0.23263   0.31636   0.05794   1.000
    O408    O    0.18906   0.31479   0.00239   1.000
    O409    O    0.33574   0.97963   0.03334   1.000
    O410    O    0.12967   0.77396   0.02816   1.000
    O411    O    0.05622   0.81300   0.03463   1.000
    O412    O    0.06291   0.74263   0.00891   1.000
    O413    O    0.60657   0.29449   0.01079   1.000
    O414    O    0.36812   0.93023   0.03729   1.000
    O415    O    0.35604   0.50662   0.00688   1.000
    O416    O    0.66031   0.92965   0.04359   1.000
    O417    O    0.69688   0.83948   0.08658   1.000
    O418    O    0.67042   0.91705   0.98805   1.000
    O419    O    0.68297   0.79262   0.99809   1.000
    O420    O    0.18291   0.70714   0.00219   1.000
    O421    O    0.30481   0.93157   0.04554   1.000
    O422    O    0.97385   0.84501   0.05136   1.000
    O423    O    0.04477   0.86349   0.06971   1.000
    O424    O    0.03377   0.88893   0.01919   1.000
    O425    O    0.34843   0.96182   0.08219   1.000
    O426    O    0.17015   0.58285   0.01182   1.000
    O427    O    0.91143   0.80329   0.05538   1.000
    O428    O    0.90812   0.84911   0.08203   1.000
    O429    O    0.40516   0.67895   0.06101   1.000
    O430    O    0.62632   0.01101   0.02765   1.000
    O431    O    0.44771   0.62316   0.07035   1.000
    O432    O    0.36301   0.63948   0.09389   1.000
    O433    O    0.37948   0.63069   0.02980   1.000
    O434    O    0.75277   0.68373   0.09211   1.000
    O435    O    0.52028   0.62414   0.09011   1.000
    O436    O    0.49243   0.57340   0.09305   1.000
    O437    O    0.12090   0.19262   0.08755   1.000
    O438    O    0.06081   0.20883   0.09229   1.000
    O439    O    0.11132   0.25751   0.09920   1.000
    O440    O    0.02768   0.35859   0.10000   1.000
    O441    O    0.09606   0.33230   0.10597   1.000
    O442    O    0.07305   0.39605   0.11058   1.000
    O443    O    0.23116   0.35265   0.10501   1.000
    O444    O    0.17666   0.30798   0.10706   1.000
    O445    O    0.26417   0.29373   0.11692   1.000
    O446    O    0.34181   0.81434   0.12573   1.000
    O447    O    0.80050   0.57401   0.12139   1.000
    O448    O    0.27151   0.54191   0.12276   1.000
    O449    O    0.29505   0.65329   0.11740   1.000
    O450    O    0.34723   0.28246   0.12391   1.000
    O451    O    0.41885   0.28269   0.12435   1.000
    O452    O    0.36804   0.94167   0.13933   1.000
    O453    O    0.77313   0.63740   0.12948   1.000
    O454    O    0.74366   0.70821   0.14337   1.000
    O455    O    0.31413   0.59107   0.12987   1.000
    O456    O    0.34945   0.65277   0.15603   1.000
    O457    O    0.29772   0.23385   0.13122   1.000
    O458    O    0.29822   0.27580   0.17500   1.000
    O459    O    0.79441   0.58866   0.17488   1.000
    O460    O    0.71684   0.77941   0.15612   1.000
    O461    O    0.69107   0.84855   0.16771   1.000
    O462    O    0.36888   0.86652   0.15540   1.000
    O463    O    0.37335   0.79228   0.17332   1.000
    O464    O    0.54140   0.12705   0.18146   1.000
    O465    O    0.39734   0.92260   0.19340   1.000
    O466    O    0.73325   0.72973   0.20331   1.000
    O467    O    0.66865   0.90913   0.18060   1.000
    O468    O    0.17143   0.98158   0.19093   1.000
    O469    O    0.54112   0.38594   0.20248   1.000
    O470    O    0.11326   0.99088   0.19718   1.000
    O471    O    0.22639   0.13045   0.21455   1.000
    O472    O    0.37918   0.71597   0.19296   1.000
    O473    O    0.38620   0.64392   0.21409   1.000
    O474    O    0.67934   0.87024   0.22595   1.000
    O475    O    0.54564   0.19022   0.19624   1.000
    O476    O    0.55338   0.25969   0.21534   1.000
    O477    O    0.40887   0.77424   0.22889   1.000
    O478    O    0.57630   0.13284   0.23072   1.000
    O479    O    0.33138   0.38772   0.22128   1.000
    O480    O    0.12351   0.94981   0.20758   1.000
    O481    O    0.15107   0.99088   0.24194   1.000
    O482    O    0.81815   0.53989   0.21685   1.000
    O483    O    0.78491   0.60855   0.23438   1.000
    O484    O    0.30743   0.32293   0.22604   1.000
    O485    O    0.27931   0.25156   0.23717   1.000
    O486    O    0.84897   0.49124   0.25848   1.000
    O487    O    0.42147   0.96999   0.22965   1.000
    O488    O    0.43002   0.90613   0.24892   1.000
    O489    O    0.56295   0.33212   0.23328   1.000
    O490    O    0.57002   0.40625   0.25087   1.000
    O491    O    0.39453   0.58260   0.23728   1.000
    O492    O    0.32067   0.37043   0.27394   1.000
    O493    O    0.75322   0.67881   0.24891   1.000
    O494    O    0.72071   0.75145   0.26288   1.000
    O495    O    0.59112   0.27436   0.27092   1.000
    O496    O    0.42360   0.63273   0.26915   1.000
    O497    O    0.24681   0.17893   0.25125   1.000
    O498    O    0.21511   0.10868   0.26578   1.000
    O499    O    0.77363   0.63040   0.28568   1.000
    O500    O    0.60530   0.08271   0.26266   1.000
    O501    O    0.61366   0.14404   0.28583   1.000
    O502    O    0.43708   0.83201   0.26648   1.000
    O503    O    0.44663   0.75958   0.28446   1.000
    O504    O    0.26678   0.22994   0.29677   1.000
    O505    O    0.69258   0.82282   0.27392   1.000
    O506    O    0.66859   0.88760   0.27859   1.000
    O507    O    0.57856   0.47011   0.27015   1.000
    O508    O    0.45894   0.88583   0.29706   1.000
    O509    O    0.60267   0.42273   0.30641   1.000
    O510    O    0.18185   0.03962   0.28341   1.000
    O511    O    0.70178   0.77579   0.32500   1.000
    O512    O    0.20559   0.08891   0.32530   1.000
    O513    O    0.87656   0.44981   0.29281   1.000
    O514    O    0.88687   0.50499   0.30314   1.000
    O515    O    0.82870   0.48162   0.30952   1.000
    O516    O    0.45435   0.69012   0.30360   1.000
    O517    O    0.45856   0.62695   0.31840   1.000
    O518    O    0.62074   0.21610   0.30693   1.000
    O519    O    0.62664   0.29241   0.32652   1.000
    O520    O    0.33136   0.40940   0.31925   1.000
    O521    O    0.30896   0.34883   0.33220   1.000
    O522    O    0.65036   0.15291   0.34390   1.000
    O523    O    0.28319   0.27970   0.34391   1.000
    O524    O    0.25635   0.20852   0.35674   1.000
    O525    O    0.63111   0.36665   0.34442   1.000
    O526    O    0.63194   0.44179   0.36050   1.000
    O527    O    0.65821   0.31450   0.37390   1.000
    O528    O    0.30319   0.33977   0.41337   1.000
    O529    O    0.22686   0.13774   0.37074   1.000
    O530    O    0.19950   0.07436   0.37891   1.000
    O531    O    0.58111   0.78265   0.37559   1.000
    O532    O    0.70231   0.73391   0.36884   1.000
    O533    O    0.65273   0.78248   0.37608   1.000
    O534    O    0.73577   0.79387   0.38307   1.000
    O535    O    0.68544   0.09117   0.37016   1.000
    O536    O    0.72791   0.04194   0.37731   1.000
    O537    O    0.92678   0.89645   0.38944   1.000
    O538    O    0.70479   0.15337   0.38250   1.000
    O539    O    0.63682   0.13979   0.40608   1.000
    O540    O    0.24721   0.18416   0.40804   1.000
    O541    O    0.65147   0.46195   0.41763   1.000
    O542    O    0.82327   0.80825   0.39294   1.000
    O543    O    0.90384   0.83267   0.39406   1.000
    O544    O    0.88864   0.75786   0.40087   1.000
    O545    O    0.76872   0.85285   0.39492   1.000
    O546    O    0.50724   0.07399   0.40709   1.000
    O547    O    0.09201   0.35027   0.41786   1.000
    O548    O    0.97219   0.85905   0.40004   1.000
    O549    O    0.47951   0.12476   0.41009   1.000
    O550    O    0.93920   0.70926   0.40785   1.000
    O551    O    0.76724   0.81663   0.44204   1.000
    O552    O    0.92786   0.87909   0.44359   1.000
    O553    O    0.95547   0.36537   0.43021   1.000
    O554    O    0.87912   0.69296   0.41255   1.000
    O555    O    0.90789   0.72535   0.45791   1.000
    O556    O    0.55214   0.12368   0.42972   1.000
    O557    O    0.48209   0.08860   0.45797   1.000
    O558    O    0.00943   0.51146   0.45573   1.000
    O559    O    0.35820   0.67941   0.45843   1.000
    O560    O    0.59485   0.17941   0.43890   1.000
    O561    O    0.62050   0.13120   0.47019   1.000
    O562    O    0.14619   0.48696   0.46197   1.000
    O563    O    0.33980   0.42993   0.45633   1.000
    O564    O    0.37379   0.51128   0.47212   1.000
    O565    O    0.08837   0.30441   0.44448   1.000
    O566    O    0.02625   0.34646   0.44855   1.000
    O567    O    0.11021   0.36119   0.46922   1.000
    O568    O    0.86372   0.00191   0.47234   1.000
    O569    O    0.82996   0.08352   0.48800   1.000
    O570    O    0.69504   0.43174   0.45433   1.000
    O571    O    0.63170   0.43036   0.46252   1.000
    O572    O    0.66406   0.47978   0.46649   1.000
    O573    O    0.94365   0.31491   0.46526   1.000
    O574    O    0.96660   0.39056   0.48053   1.000
    O575    O    0.86993   0.27632   0.47178   1.000
    O576    O    0.81709   0.20892   0.49765   1.000
    O577    O    0.38382   0.32438   0.48285   1.000
    O578    O    0.22454   0.37201   0.48342   1.000
    O579    O    0.31711   0.29293   0.50206   1.000
    O580    O    0.32975   0.41726   0.51181   1.000
    O581    O    0.64392   0.00714   0.49329   1.000
    O582    O    0.39355   0.79480   0.48772   1.000
    O583    O    0.93655   0.24461   0.49094   1.000
    O584    O    0.74271   0.78381   0.48836   1.000
    O585    O    0.73787   0.83976   0.49046   1.000
    O586    O    0.81076   0.81516   0.49761   1.000
    O587    O    0.07354   0.49055   0.48362   1.000
    O588    O    0.99068   0.46496   0.49445   1.000
    O589    O    0.01372   0.53121   0.49798   1.000
    O590    O    0.89901   0.93371   0.48947   1.000
    O591    O    0.95564   0.89009   0.49535   1.000
    O592    O    0.89080   0.85319   0.49805   1.000
    O593    O    0.13341   0.43089   0.49038   1.000
    O594    O    0.14448   0.49388   0.50678   1.000
    O595    O    0.44861   0.76777   0.49276   1.000
    O596    O    0.38597   0.72626   0.49304   1.000
    O597    O    0.39078   0.64734   0.49805   1.000
    O598    O    0.31072   0.68533   0.50248   1.000
    O599    O    0.51294   0.97036   0.50234   1.000
    O600    O    0.42305   0.06646   0.48979   1.000
    O601    O    0.45564   0.61049   0.50071   1.000
    O602    O    0.49028   0.03674   0.50540   1.000
    O603    O    0.46656   0.11130   0.51909   1.000
    O604    O    0.43717   0.25758   0.50879   1.000
    O605    O    0.12045   0.36981   0.52960   1.000
    O606    O    0.87378   0.98877   0.52787   1.000
    O607    O    0.88603   0.77426   0.50555   1.000
    O608    O    0.94869   0.73281   0.50586   1.000
    O609    O    0.89365   0.70574   0.51085   1.000
    O610    O    0.40778   0.77520   0.54069   1.000
    O611    O    0.23781   0.66074   0.50962   1.000
    O612    O    0.39903   0.56683   0.50650   1.000
    O613    O    0.36374   0.49860   0.52760   1.000
    O614    O    0.63321   0.07024   0.50955   1.000
    O615    O    0.72477   0.12906   0.51628   1.000
    O616    O    0.61035   0.14011   0.53055   1.000
    O617    O    0.24270   0.71667   0.51177   1.000
    O618    O    0.88371   0.17721   0.51680   1.000
    O619    O    0.92331   0.43537   0.50994   1.000
    O620    O    0.98226   0.41286   0.54170   1.000
    O621    O    0.42790   0.62148   0.55245   1.000
    O622    O    0.85825   0.82110   0.54166   1.000
    O623    O    0.57303   0.01086   0.51651   1.000
    O624    O    0.64576   0.01422   0.53808   1.000
    O625    O    0.50885   0.99036   0.54452   1.000
    O626    O    0.26723   0.68378   0.55805   1.000
    O627    O    0.16814   0.02038   0.53373   1.000
    O628    O    0.37047   0.22613   0.52800   1.000
    O629    O    0.44401   0.18720   0.53449   1.000
    O630    O    0.13482   0.06931   0.53751   1.000
    O631    O    0.84003   0.07038   0.54353   1.000
    O632    O    0.80359   0.16096   0.58630   1.000
    O633    O    0.19815   0.06898   0.54570   1.000
    O634    O    0.52646   0.15529   0.55119   1.000
    O635    O    0.45558   0.13674   0.56959   1.000
    O636    O    0.15515   0.03826   0.58250   1.000
    O637    O    0.58882   0.19707   0.55515   1.000
    O638    O    0.59220   0.15128   0.58186   1.000
    O639    O    0.09467   0.32152   0.56077   1.000
    O640    O    0.05215   0.37737   0.57009   1.000
    O641    O    0.13677   0.36097   0.59369   1.000
    O642    O    0.74782   0.31639   0.59182   1.000
    O643    O    0.97949   0.37642   0.58968   1.000
    O644    O    0.00748   0.42708   0.59288   1.000
    O645    O    0.37892   0.80754   0.58753   1.000
    O646    O    0.43904   0.79136   0.59224   1.000
    O647    O    0.38856   0.74266   0.59921   1.000
    O648    O    0.47224   0.64160   0.59997   1.000
    O649    O    0.40387   0.66787   0.60597   1.000
    O650    O    0.42691   0.60413   0.61060   1.000
    O651    O    0.26878   0.64747   0.60513   1.000
    O652    O    0.32326   0.69217   0.60714   1.000
    O653    O    0.23572   0.70637   0.61703   1.000
    O654    O    0.15968   0.18601   0.62574   1.000
    O655    O    0.70000   0.42607   0.62101   1.000
    O656    O    0.22800   0.45859   0.62276   1.000
    O657    O    0.20474   0.34724   0.61724   1.000
    O658    O    0.15267   0.71758   0.62399   1.000
    O659    O    0.08106   0.71717   0.62450   1.000
    O660    O    0.13509   0.05845   0.63953   1.000
    O661    O    0.72732   0.36268   0.62915   1.000
    O662    O    0.75674   0.29188   0.64311   1.000
    O663    O    0.18545   0.40938   0.62976   1.000
    O664    O    0.15028   0.34754   0.65583   1.000
    O665    O    0.20215   0.76624   0.63134   1.000
    O666    O    0.20166   0.72426   0.67511   1.000
    O667    O    0.70579   0.41137   0.67461   1.000
    O668    O    0.78350   0.22068   0.65588   1.000
    O669    O    0.80927   0.15155   0.66751   1.000
    O670    O    0.13305   0.13365   0.65542   1.000
    O671    O    0.12761   0.20789   0.67320   1.000
    O672    O    0.10492   0.07740   0.69341   1.000
    O673    O    0.95960   0.87265   0.68188   1.000
    O674    O    0.76692   0.27032   0.70306   1.000
    O675    O    0.83166   0.09096   0.68040   1.000
    O676    O    0.33064   0.01793   0.69101   1.000
    O677    O    0.95780   0.61374   0.70302   1.000
    O678    O    0.27389   0.86950   0.71470   1.000
    O679    O    0.12093   0.28417   0.69273   1.000
    O680    O    0.11321   0.35619   0.71379   1.000
    O681    O    0.38851   0.99429   0.69803   1.000
    O682    O    0.82091   0.12984   0.72574   1.000
    O683    O    0.95481   0.80950   0.69664   1.000
    O684    O    0.94644   0.74007   0.71570   1.000
    O685    O    0.09156   0.22573   0.72862   1.000
    O686    O    0.92449   0.86706   0.73108   1.000
    O687    O    0.16829   0.61239   0.72138   1.000
    O688    O    0.37840   0.04956   0.70812   1.000
    O689    O    0.34986   0.00839   0.74228   1.000
    O690    O    0.68175   0.46008   0.71651   1.000
    O691    O    0.71499   0.39143   0.73413   1.000
    O692    O    0.19236   0.67714   0.72615   1.000
    O693    O    0.22059   0.74848   0.73728   1.000
    O694    O    0.65006   0.50846   0.75789   1.000
    O695    O    0.08092   0.02988   0.72959   1.000
    O696    O    0.07156   0.09371   0.74877   1.000
    O697    O    0.93621   0.66767   0.73360   1.000
    O698    O    0.92830   0.59358   0.75106   1.000
    O699    O    0.10428   0.41748   0.73692   1.000
    O700    O    0.74669   0.32119   0.74862   1.000
    O701    O    0.77934   0.24859   0.76265   1.000
    O702    O    0.17902   0.62964   0.77404   1.000
    O703    O    0.07551   0.36718   0.76876   1.000
    O704    O    0.90833   0.72558   0.77118   1.000
    O705    O    0.25323   0.82107   0.75138   1.000
    O706    O    0.28495   0.89130   0.76594   1.000
    O707    O    0.72602   0.36955   0.78535   1.000
    O708    O    0.06365   0.16780   0.76620   1.000
    O709    O    0.05344   0.24019   0.78409   1.000
    O710    O    0.89582   0.91735   0.76295   1.000
    O711    O    0.88685   0.85604   0.78607   1.000
    O712    O    0.80755   0.17724   0.77370   1.000
    O713    O    0.83162   0.11248   0.77838   1.000
    O714    O    0.23304   0.77009   0.79688   1.000
    O715    O    0.91896   0.52975   0.77024   1.000
    O716    O    0.04202   0.11386   0.79674   1.000
    O717    O    0.89498   0.57725   0.80638   1.000
    O718    O    0.31821   0.95992   0.78363   1.000
    O719    O    0.79827   0.22427   0.82480   1.000
    O720    O    0.29417   0.91111   0.82548   1.000
    O721    O    0.62148   0.54955   0.79207   1.000
    O722    O    0.61135   0.49426   0.80210   1.000
    O723    O    0.66922   0.51791   0.80914   1.000
    O724    O    0.04510   0.30961   0.80318   1.000
    O725    O    0.04035   0.37275   0.81795   1.000
    O726    O    0.87907   0.78401   0.80711   1.000
    O727    O    0.87230   0.70772   0.82660   1.000
    O728    O    0.16828   0.59066   0.81934   1.000
    O729    O    0.19070   0.65122   0.83230   1.000
    O730    O    0.84992   0.84736   0.84407   1.000
    O731    O    0.21649   0.72034   0.84401   1.000
    O732    O    0.24324   0.79153   0.85686   1.000
    O733    O    0.86685   0.63348   0.84435   1.000
    O734    O    0.86486   0.55830   0.86028   1.000
    O735    O    0.84021   0.68581   0.87406   1.000
    O736    O    0.19658   0.66031   0.91346   1.000
    O737    O    0.27266   0.86233   0.87089   1.000
    O738    O    0.29997   0.92572   0.87908   1.000
    O739    O    0.91888   0.21720   0.87537   1.000
    O740    O    0.79777   0.26617   0.86860   1.000
    O741    O    0.84727   0.21755   0.87591   1.000
    O742    O    0.76423   0.20626   0.88288   1.000
    O743    O    0.81525   0.90929   0.87026   1.000
    O744    O    0.77298   0.95865   0.87723   1.000
    O745    O    0.57305   0.10393   0.88933   1.000
    O746    O    0.79544   0.84721   0.88264   1.000
    O747    O    0.86349   0.86051   0.90624   1.000
    O748    O    0.25217   0.81593   0.90819   1.000
    O749    O    0.84492   0.53812   0.91738   1.000
    O750    O    0.67670   0.19200   0.89279   1.000
    O751    O    0.59610   0.16767   0.89396   1.000
    O752    O    0.61141   0.24246   0.90077   1.000
    O753    O    0.73118   0.14733   0.89474   1.000
    O754    O    0.99305   0.92611   0.90719   1.000
    O755    O    0.40805   0.65055   0.91813   1.000
    O756    O    0.52773   0.14136   0.89999   1.000
    O757    O    0.02077   0.87533   0.91019   1.000
    O758    O    0.56095   0.29113   0.90776   1.000
    O759    O    0.73279   0.18355   0.94183   1.000
    O760    O    0.57211   0.12123   0.94348   1.000
    O761    O    0.62106   0.30733   0.91247   1.000
    O762    O    0.54465   0.63620   0.93064   1.000
    O763    O    0.59227   0.27494   0.95781   1.000
    O764    O    0.94814   0.87648   0.92987   1.000
    O765    O    0.01823   0.91156   0.95807   1.000
    O766    O    0.49109   0.48981   0.95564   1.000
    O767    O    0.14151   0.32069   0.95837   1.000
    O768    O    0.90534   0.82077   0.93912   1.000
    O769    O    0.35418   0.51358   0.96207   1.000
    O770    O    0.16014   0.57015   0.95631   1.000
    O771    O    0.41133   0.69642   0.94475   1.000
    O772    O    0.47370   0.65469   0.94890   1.000
    O773    O    0.38976   0.63951   0.96944   1.000
    O774    O    0.63644   0.99841   0.97211   1.000
    O775    O    0.80200   0.56880   0.95421   1.000
    O776    O    0.86536   0.56919   0.96235   1.000
    O777    O    0.83207   0.52023   0.96619   1.000
    O778    O    0.55606   0.68671   0.96572   1.000
    O779    O    0.62956   0.72574   0.97230   1.000
    O780    O    0.11614   0.67581   0.98294   1.000
    O781    O    0.27543   0.62832   0.98355   1.000
    O782    O    0.75741   0.21635   0.98813   1.000
    O783    O    0.76222   0.16039   0.99024   1.000
    O784    O    0.42692   0.51028   0.98363   1.000
    O785    O    0.60105   0.06656   0.98929   1.000
    O786    O    0.36680   0.56967   0.99050   1.000
    O787    O    0.07731   0.93371   0.98987   1.000
loop_
    _geom_bond_atom_site_label_1
    _geom_bond_atom_site_label_2
    _geom_bond_distance
    _geom_bond_site_symmetry_2
    _ccdc_geom_bond_type
    C282   O372      0.80619      .   S
    C281   O372      0.80619      .   S
    C282   O373      0.53675  1_554   S
    C127   O373      0.53675      .   S
    C282   O374      0.54140  1_554   S
    C126   O374      0.54140      .   S
    C282   O375      0.76231  1_554   S
    C283   O375      0.76231      .   S
    C285   O376      0.77150      .   S
    C284   O376      0.77150      .   S
    C285   O377      0.66512      .   S
    C362   O377      0.66512      .   S
    C285   O378      0.60743  1_554   S
    C363   O378      0.60743      .   S
    C121   O379      0.54873      .   S
    C279   O379      0.54873      .   S
    C326   O380      0.75059      .   S
    C187   O380      0.75059      .   S
    C326   O381      1.22074      .   S
    C0     O381      1.22074      .   S
    C326   O382      0.74875      .   S
    C198   O382      0.74875      .   S
    C326   O383      0.75462  1_554   S
    C174   O383      0.75462      .   S
    C120   O384      0.55115      .   S
    C279   O384      0.55115      .   S
    C369   O385      1.20671      .   S
    C0     O385      1.20671      .   S
    C369   O386      0.63480  1_554   S
    C313   O386      0.63480      .   S
    C297   O387      0.54920      .   S
    C138   O387      0.54920      .   S
    C297   O388      0.76851      .   S
    C305   O388      0.76851      .   S
    C297   O389      0.77693  1_554   S
    C291   O389      0.77693      .   S
    C297   O390      0.76683  1_554   S
    C300   O390      0.76683      .   S
    C87    O391      0.55132  1_554   S
    C246   O391      0.55132      .   S
    C142   O392      0.54958  1_554   S
    C300   O392      0.54958      .   S
    C245   O393      0.54814      .   S
    C86    O393      0.54814      .   S
    C245   O394      0.76922  1_554   S
    C241   O394      0.76922      .   S
    C245   O395      0.77713  1_554   S
    C246   O395      0.77713      .   S
    C245   O396      0.76819      .   S
    C244   O396      0.76819  1_556   S
    C84    O397      0.54989      .   S
    C244   O397      0.54989  1_556   S
    C187   O398      0.77247      .   S
    C186   O398      0.77247  1_545   S
    C187   O399      0.54919      .   S
    C18    O399      0.54919      .   S
    C187   O400      0.54641  1_554   S
    C17    O400      0.54641  1_545   S
    C284   O401      0.77969      .   S
    C280   O401      0.77969      .   S
    C284   O402      0.77713      .   S
    C283   O402      0.77713  1_556   S
    C284   O403      0.55134      .   S
    C129   O403      0.55134  1_556   S
    C186   O404      0.55046      .   S
    C15    O404      0.55046  1_455   S
    C186   O405      0.54978      .   S
    C16    O405      0.54978  1_556   S
    C186   O406      0.76690  1_645   S
    C183   O406      0.76690  1_556   S
    C279   O407      0.77495      .   S
    C278   O407      0.77495      .   S
    C279   O408      0.76911      .   S
    C283   O408      0.76911  1_556   S
    C155   O409      0.54785  1_545   S
    C314   O409      0.54785      .   S
    C199   O410      0.64177      .   S
    C344   O410      0.64177      .   S
    C199   O411      0.76459      .   S
    C177   O411      0.76459      .   S
    C199   O412      0.63492      .   S
    C345   O412      0.63492  1_556   S
    C85    O413      0.55070      .   S
    C244   O413      0.55070  1_556   S
    C156   O414      0.55035      .   S
    C314   O414      0.55035      .   S
    C143   O415      0.54640      .   S
    C301   O415      0.54640  1_556   S
    C0     O416      1.20838      .   S
    C355   O416      1.20838      .   S
    C0     O417      1.18613      .   S
    C324   O417      1.18613      .   S
    C0     O418      1.22826  1_554   S
    C354   O418      1.22826      .   S
    C0     O419      1.21723  1_554   S
    C368   O419      1.21723      .   S
    C344   O420      1.21858      .   S
    C3     O420      1.21858  1_556   S
    C157   O421      0.55037      .   S
    C314   O421      0.55037      .   S
    C177   O422      0.77622  1_455   S
    C198   O422      0.77622      .   S
    C177   O423      0.54976      .   S
    C9     O423      0.54976      .   S
    C177   O424      0.77690      .   S
    C183   O424      0.77690  1_556   S
    C314   O425      0.72005      .   S
    C366   O425      0.72005      .   S
    C362   O426      1.22619      .   S
    C3     O426      1.22619  1_556   S
    C28    O427      0.54802      .   S
    C198   O427      0.54802      .   S
    C198   O428      0.54914      .   S
    C27    O428      0.54914      .   S
    C134   O429      0.54858      .   S
    C288   O429      0.54858      .   S
    C355   O430      0.63718  1_565   S
    C247   O430      0.63718  1_556   S
    C288   O431      0.77141      .   S
    C305   O431      0.77141      .   S
    C288   O432      0.77431      .   S
    C287   O432      0.77431      .   S
    C288   O433      0.75499      .   S
    C338   O433      0.75499  1_556   S
    C26    O434      0.54514      .   S
    C196   O434      0.54514      .   S
    C305   O435      0.54897      .   S
    C147   O435      0.54897      .   S
    C305   O436      0.55060      .   S
    C146   O436      0.55060      .   S
    C281   O437      0.54975      .   S
    C124   O437      0.54975      .   S
    C281   O438      0.55010      .   S
    C125   O438      0.55010      .   S
    C281   O439      0.73999      .   S
    C335   O439      0.73999      .   S
    C280   O440      0.55011      .   S
    C122   O440      0.55011  1_655   S
    C280   O441      0.73888      .   S
    C335   O441      0.73888      .   S
    C280   O442      0.54884      .   S
    C123   O442      0.54884      .   S
    C278   O443      0.55005      .   S
    C119   O443      0.55005      .   S
    C278   O444      0.74010      .   S
    C335   O444      0.74010      .   S
    C278   O445      0.76933      .   S
    C264   O445      0.76933      .   S
    C139   O446      0.54315      .   S
    C298   O446      0.54315      .   S
    C23    O447      0.54461      .   S
    C193   O447      0.54461      .   S
    C130   O448      0.49550      .   S
    C364   O448      0.49550      .   S
    C133   O449      0.55258      .   S
    C287   O449      0.55258      .   S
    C357   O450      0.71346      .   S
    C264   O450      0.71346      .   S
    C357   O451      0.50328      .   S
    C90    O451      0.50328      .   S
    C366   O452      0.68521      .   S
    C303   O452      0.68521      .   S
    C196   O453      0.68593      .   S
    C193   O453      0.68593      .   S
    C196   O454      0.70942      .   S
    C178   O454      0.70942      .   S
    C287   O455      0.71263      .   S
    C364   O455      0.71263      .   S
    C287   O456      0.76119      .   S
    C293   O456      0.76119      .   S
    C103   O457      0.55265      .   S
    C264   O457      0.55265      .   S
    C264   O458      0.76214      .   S
    C251   O458      0.76214      .   S
    C193   O459      0.70764      .   S
    C197   O459      0.70764      .   S
    C324   O460      0.68707      .   S
    C178   O460      0.68707      .   S
    C324   O461      0.66811      .   S
    C192   O461      0.66811      .   S
    C298   O462      0.69225      .   S
    C303   O462      0.69225      .   S
    C298   O463      0.71049      .   S
    C294   O463      0.71049      .   S
    C53    O464      0.54604      .   S
    C220   O464      0.54604      .   S
    C303   O465      0.70931      .   S
    C309   O465      0.70931      .   S
    C178   O466      0.71935      .   S
    C190   O466      0.71935      .   S
    C22    O467      0.54529      .   S
    C192   O467      0.54529      .   S
    C118   O468      0.54936      .   S
    C277   O468      0.54936      .   S
    C56    O469      0.54900      .   S
    C223   O469      0.54900      .   S
    C117   O470      0.43816  1_545   S
    C277   O470      0.43816      .   S
    C108   O471      0.54250      .   S
    C270   O471      0.54250      .   S
    C293   O472      0.71548      .   S
    C294   O472      0.71548      .   S
    C293   O473      0.69195      .   S
    C295   O473      0.69195      .   S
    C192   O474      0.70072      .   S
    C172   O474      0.70072      .   S
    C329   O475      0.66449      .   S
    C220   O475      0.66449      .   S
    C329   O476      0.68379      .   S
    C214   O476      0.68379      .   S
    C294   O477      0.71850      .   S
    C290   O477      0.71850      .   S
    C220   O478      0.70376      .   S
    C219   O478      0.70376      .   S
    C89    O479      0.54461      .   S
    C248   O479      0.54461      .   S
    C277   O480      0.54734      .   S
    C116   O480      0.54734      .   S
    C277   O481      0.71537      .   S
    C359   O481      0.71537  1_545   S
    C197   O482      0.68242      .   S
    C343   O482      0.68242      .   S
    C197   O483      0.69342      .   S
    C194   O483      0.69342      .   S
    C251   O484      0.69268      .   S
    C248   O484      0.69268      .   S
    C251   O485      0.71481      .   S
    C266   O485      0.71481      .   S
    C343   O486      0.71662      .   S
    C201   O486      0.71662      .   S
    C309   O487      0.54473      .   S
    C151   O487      0.54473  1_545   S
    C309   O488      0.68588      .   S
    C299   O488      0.68588      .   S
    C223   O489      0.70999      .   S
    C214   O489      0.70999      .   S
    C223   O490      0.68618      .   S
    C233   O490      0.68618      .   S
    C136   O491      0.54324      .   S
    C295   O491      0.54324      .   S
    C248   O492      0.70053      .   S
    C268   O492      0.70053      .   S
    C190   O493      0.71089      .   S
    C194   O493      0.71089      .   S
    C190   O494      0.71479      .   S
    C175   O494      0.71479      .   S
    C214   O495      0.71918      .   S
    C218   O495      0.71918      .   S
    C295   O496      0.70325      .   S
    C296   O496      0.70325      .   S
    C270   O497      0.71089      .   S
    C266   O497      0.71089      .   S
    C270   O498      0.69211      .   S
    C273   O498      0.69211      .   S
    C194   O499      0.54249      .   S
    C24    O499      0.54249      .   S
    C219   O500      0.54325      .   S
    C52    O500      0.54325      .   S
    C219   O501      0.69191      .   S
    C217   O501      0.69191      .   S
    C290   O502      0.71006      .   S
    C299   O502      0.71006      .   S
    C290   O503      0.68434      .   S
    C337   O503      0.68434      .   S
    C266   O504      0.71933      .   S
    C254   O504      0.71933      .   S
    C172   O505      0.69265      .   S
    C175   O505      0.69265      .   S
    C172   O506      0.54454      .   S
    C5     O506      0.54454      .   S
    C67    O507      0.54464      .   S
    C233   O507      0.54464      .   S
    C299   O508      0.54517      .   S
    C140   O508      0.54517      .   S
    C233   O509      0.70929      .   S
    C227   O509      0.70929      .   S
    C359   O510      0.68803      .   S
    C273   O510      0.68803      .   S
    C175   O511      0.76196      .   S
    C188   O511      0.76196      .   S
    C273   O512      0.70943      .   S
    C269   O512      0.70943      .   S
    C32    O513      0.54735      .   S
    C201   O513      0.54735      .   S
    C201   O514      0.55092      .   S
    C33    O514      0.55092      .   S
    C201   O515      0.54936      .   S
    C34    O515      0.54936      .   S
    C296   O516      0.66458      .   S
    C337   O516      0.66458      .   S
    C296   O517      0.54650      .   S
    C137   O517      0.54650      .   S
    C218   O518      0.71547      .   S
    C217   O518      0.71547      .   S
    C218   O519      0.71042      .   S
    C222   O519      0.71042      .   S
    C268   O520      0.54536      .   S
    C106   O520      0.54536      .   S
    C268   O521      0.66825      .   S
    C332   O521      0.66825      .   S
    C217   O522      0.76115      .   S
    C211   O522      0.76115      .   S
    C254   O523      0.68705      .   S
    C332   O523      0.68705      .   S
    C254   O524      0.70939      .   S
    C272   O524      0.70939      .   S
    C227   O525      0.69223      .   S
    C222   O525      0.69223      .   S
    C227   O526      0.68515      .   S
    C350   O526      0.68515      .   S
    C222   O527      0.53996      .   S
    C55    O527      0.53996      .   S
    C332   O528      1.18568      .   S
    C2     O528      1.18568      .   S
    C269   O529      0.68592      .   S
    C272   O529      0.68592      .   S
    C269   O530      0.54463      .   S
    C107   O530      0.54463      .   S
    C6     O531      0.50330      .   S
    C341   O531      0.50330      .   S
    C188   O532      0.55267      .   S
    C19    O532      0.55267      .   S
    C188   O533      0.71353      .   S
    C341   O533      0.71353      .   S
    C188   O534      0.76938      .   S
    C202   O534      0.76938      .   S
    C348   O535      0.71262      .   S
    C211   O535      0.71262      .   S
    C348   O536      0.49546      .   S
    C46    O536      0.49546      .   S
    C39    O537      0.54888      .   S
    C204   O537      0.54888      .   S
    C211   O538      0.55269      .   S
    C49    O538      0.55269      .   S
    C211   O539      0.77425      .   S
    C212   O539      0.77425      .   S
    C272   O540      0.54514      .   S
    C110   O540      0.54514      .   S
    C350   O541      0.71971      .   S
    C238   O541      0.71971      .   S
    C327   O542      0.74013      .   S
    C202   O542      0.74013      .   S
    C327   O543      0.73893      .   S
    C204   O543      0.73893      .   S
    C327   O544      0.74006      .   S
    C205   O544      0.74006      .   S
    C35    O545      0.55006      .   S
    C202   O545      0.55006      .   S
    C62    O546      0.55057      .   S
    C229   O546      0.55057      .   S
    C111   O547      0.54956      .   S
    C274   O547      0.54956      .   S
    C38    O548      0.55015  1_455   S
    C204   O548      0.55015      .   S
    C63    O549      0.54899      .   S
    C229   O549      0.54899      .   S
    C41    O550      0.55009      .   S
    C205   O550      0.55009      .   S
    C202   O551      0.77494      .   S
    C203   O551      0.77494      .   S
    C204   O552      0.77962      .   S
    C208   O552      0.77962      .   S
    C93    O553      0.54962      .   S
    C253   O553      0.54962      .   S
    C40    O554      0.54974      .   S
    C205   O554      0.54974      .   S
    C205   O555      0.77700      .   S
    C206   O555      0.77700      .   S
    C229   O556      0.77141      .   S
    C212   O556      0.77141      .   S
    C229   O557      0.76847      .   S
    C221   O557      0.76847      .   S
    C99    O558      0.55041  1_655   S
    C262   O558      0.55041      .   S
    C170   O559      0.54817      .   S
    C321   O559      0.54817      .   S
    C212   O560      0.54847      .   S
    C50    O560      0.54847      .   S
    C212   O561      0.75498      .   S
    C330   O561      0.75498      .   S
    C102   O562      0.54914      .   S
    C263   O562      0.54914      .   S
    C371   O563      1.20814      .   S
    C2     O563      1.20814      .   S
    C371   O564      0.63435      .   S
    C323   O564      0.63435      .   S
    C274   O565      0.54805      .   S
    C112   O565      0.54805      .   S
    C274   O566      0.77611      .   S
    C253   O566      0.77611  1_655   S
    C274   O567      0.74833      .   S
    C334   O567      0.74833      .   S
    C346   O568      0.64184      .   S
    C209   O568      0.64184  1_565   S
    C346   O569      1.22664      .   S
    C1     O569      1.22664      .   S
    C238   O570      0.55037      .   S
    C73    O570      0.55037      .   S
    C238   O571      0.55049      .   S
    C72    O571      0.55049      .   S
    C238   O572      0.54800      .   S
    C71    O572      0.54800      .   S
    C253   O573      0.76420      .   S
    C275   O573      0.76420      .   S
    C253   O574      0.77340      .   S
    C259   O574      0.77340      .   S
    C360   O575      0.64119      .   S
    C275   O575      0.64119      .   S
    C360   O576      1.22798      .   S
    C1     O576      1.22798      .   S
    C2     O577      1.20537      .   S
    C353   O577      1.20537      .   S
    C2     O578      1.22017      .   S
    C334   O578      1.22017      .   S
    C2     O579      1.21879      .   S
    C352   O579      1.21879      .   S
    C2     O580      1.22706      .   S
    C370   O580      1.22706      .   S
    C59    O581      0.54607  1_565   S
    C225   O581      0.54607      .   S
    C169   O582      0.53678      .   S
    C320   O582      0.53678      .   S
    C275   O583      0.63527      .   S
    C361   O583      0.63527      .   S
    C203   O584      0.55114      .   S
    C36    O584      0.55114      .   S
    C203   O585      0.54803      .   S
    C37    O585      0.54803      .   S
    C203   O586      0.76909      .   S
    C207   O586      0.76909      .   S
    C262   O587      0.77244      .   S
    C263   O587      0.77244      .   S
    C262   O588      0.76508  1_455   S
    C259   O588      0.76508      .   S
    C262   O589      0.54947      .   S
    C100   O589      0.54947      .   S
    C208   O590      0.76508      .   S
    C209   O590      0.76508      .   S
    C208   O591      0.55135      .   S
    C45    O591      0.55135      .   S
    C208   O592      0.77715      .   S
    C207   O592      0.77715      .   S
    C263   O593      0.75056      .   S
    C334   O593      0.75056      .   S
    C263   O594      0.54602      .   S
    C101   O594      0.54602      .   S
    C168   O595      0.54138      .   S
    C320   O595      0.54138      .   S
    C321   O596      0.76237      .   S
    C320   O596      0.76237      .   S
    C321   O597      0.74913      .   S
    C322   O597      0.74913      .   S
    C321   O598      0.76906      .   S
    C317   O598      0.76906      .   S
    C58    O599      0.54947      .   S
    C224   O599      0.54947      .   S
    C54    O600      0.54921      .   S
    C221   O600      0.54921      .   S
    C171   O601      0.51890      .   S
    C322   O601      0.51890      .   S
    C221   O602      0.76683      .   S
    C224   O602      0.76683  1_565   S
    C221   O603      0.77679      .   S
    C215   O603      0.77679      .   S
    C353   O604      0.63488      .   S
    C237   O604      0.63488      .   S
    C334   O605      0.75506      .   S
    C250   O605      0.75506      .   S
    C209   O606      0.63482      .   S
    C347   O606      0.63482  1_545   S
    C206   O607      0.76816      .   S
    C207   O607      0.76816      .   S
    C206   O608      0.54983      .   S
    C42    O608      0.54983      .   S
    C206   O609      0.55037      .   S
    C43    O609      0.55037      .   S
    C320   O610      0.80604      .   S
    C319   O610      0.80604      .   S
    C163   O611      0.54798      .   S
    C317   O611      0.54798      .   S
    C323   O612      0.75450      .   S
    C322   O612      0.75450      .   S
    C323   O613      0.64310      .   S
    C370   O613      0.64310      .   S
    C330   O614      0.75055      .   S
    C225   O614      0.75055      .   S
    C330   O615      1.22245      .   S
    C1     O615      1.22245      .   S
    C330   O616      0.74849      .   S
    C236   O616      0.74849      .   S
    C162   O617      0.55116      .   S
    C317   O617      0.55116      .   S
    C361   O618      1.20222      .   S
    C1     O618      1.20222      .   S
    C259   O619      0.54973      .   S
    C96    O619      0.54973      .   S
    C259   O620      0.77267      .   S
    C267   O620      0.77267  1_455   S
    C322   O621      0.85499      .   S
    C318   O621      0.85499      .   S
    C207   O622      0.54818      .   S
    C44    O622      0.54818      .   S
    C225   O623      0.77256      .   S
    C224   O623      0.77256  1_565   S
    C225   O624      0.54915      .   S
    C60    O624      0.54915      .   S
    C224   O625      0.55039      .   S
    C57    O625      0.55039      .   S
    C317   O626      0.77491      .   S
    C316   O626      0.77491      .   S
    C113   O627      0.54810  1_565   S
    C276   O627      0.54810      .   S
    C237   O628      0.64179      .   S
    C352   O628      0.64179      .   S
    C237   O629      0.76459      .   S
    C215   O629      0.76459      .   S
    C114   O630      0.55055      .   S
    C276   O630      0.55055      .   S
    C1     O631      1.21885      .   S
    C347   O631      1.21885      .   S
    C1     O632      1.18596      .   S
    C328   O632      1.18596      .   S
    C115   O633      0.55037      .   S
    C276   O633      0.55037      .   S
    C215   O634      0.77620      .   S
    C236   O634      0.77620      .   S
    C215   O635      0.54979      .   S
    C51    O635      0.54979      .   S
    C276   O636      0.71936      .   S
    C358   O636      0.71936      .   S
    C70    O637      0.54803      .   S
    C236   O637      0.54803      .   S
    C236   O638      0.54910      .   S
    C69    O638      0.54910      .   S
    C92    O639      0.54864      .   S
    C250   O639      0.54864      .   S
    C250   O640      0.77147      .   S
    C267   O640      0.77147      .   S
    C250   O641      0.77419      .   S
    C249   O641      0.77419      .   S
    C68    O642      0.54513      .   S
    C234   O642      0.54513      .   S
    C267   O643      0.54914  1_455   S
    C105   O643      0.54914      .   S
    C267   O644      0.55064      .   S
    C104   O644      0.55064      .   S
    C319   O645      0.54976      .   S
    C166   O645      0.54976      .   S
    C319   O646      0.55001      .   S
    C167   O646      0.55001      .   S
    C319   O647      0.74007      .   S
    C339   O647      0.74007      .   S
    C318   O648      0.55013      .   S
    C164   O648      0.55013      .   S
    C318   O649      0.73917      .   S
    C339   O649      0.73917      .   S
    C318   O650      0.54927      .   S
    C165   O650      0.54927      .   S
    C316   O651      0.55005      .   S
    C161   O651      0.55005      .   S
    C316   O652      0.74012      .   S
    C339   O652      0.74012      .   S
    C316   O653      0.76931      .   S
    C302   O653      0.76931      .   S
    C97    O654      0.54330      .   S
    C260   O654      0.54330      .   S
    C65    O655      0.54462      .   S
    C231   O655      0.54462      .   S
    C88    O656      0.49590      .   S
    C356   O656      0.49590      .   S
    C91    O657      0.55258      .   S
    C249   O657      0.55258      .   S
    C365   O658      0.71351      .   S
    C302   O658      0.71351      .   S
    C365   O659      0.50334      .   S
    C132   O659      0.50334      .   S
    C358   O660      0.68563      .   S
    C265   O660      0.68563      .   S
    C234   O661      0.68585      .   S
    C231   O661      0.68585      .   S
    C234   O662      0.70937      .   S
    C216   O662      0.70937      .   S
    C249   O663      0.71261      .   S
    C356   O663      0.71261      .   S
    C249   O664      0.76111      .   S
    C255   O664      0.76111      .   S
    C145   O665      0.55268      .   S
    C302   O665      0.55268      .   S
    C302   O666      0.76212      .   S
    C289   O666      0.76212      .   S
    C231   O667      0.70945      .   S
    C235   O667      0.70945      .   S
    C328   O668      0.68704      .   S
    C216   O668      0.68704      .   S
    C328   O669      0.66815      .   S
    C230   O669      0.66815      .   S
    C260   O670      0.69225      .   S
    C265   O670      0.69225      .   S
    C260   O671      0.71054      .   S
    C256   O671      0.71054      .   S
    C265   O672      0.70933      .   S
    C271   O672      0.70933      .   S
    C11    O673      0.54642      .   S
    C182   O673      0.54642      .   S
    C216   O674      0.71921      .   S
    C228   O674      0.71921      .   S
    C64    O675      0.54529      .   S
    C230   O675      0.54529      .   S
    C160   O676      0.54932      .   S
    C315   O676      0.54932      .   S
    C14    O677      0.54546      .   S
    C185   O677      0.54546      .   S
    C150   O678      0.54246      .   S
    C308   O678      0.54246      .   S
    C255   O679      0.71547      .   S
    C256   O679      0.71547      .   S
    C255   O680      0.69194      .   S
    C257   O680      0.69194      .   S
    C159   O681      0.55093      .   S
    C315   O681      0.55093  1_545   S
    C230   O682      0.70046      .   S
    C210   O682      0.70046      .   S
    C325   O683      0.66456      .   S
    C182   O683      0.66456      .   S
    C325   O684      0.68438      .   S
    C176   O684      0.68438      .   S
    C256   O685      0.71841      .   S
    C252   O685      0.71841      .   S
    C182   O686      0.70328      .   S
    C181   O686      0.70328      .   S
    C131   O687      0.54460      .   S
    C286   O687      0.54460      .   S
    C315   O688      0.54736      .   S
    C158   O688      0.54736      .   S
    C315   O689      0.71680      .   S
    C367   O689      0.71680  1_565   S
    C235   O690      0.68206      .   S
    C351   O690      0.68206      .   S
    C235   O691      0.69213      .   S
    C232   O691      0.69213      .   S
    C289   O692      0.69268      .   S
    C286   O692      0.69268      .   S
    C289   O693      0.71481      .   S
    C304   O693      0.71481      .   S
    C351   O694      0.71678      .   S
    C239   O694      0.71678      .   S
    C271   O695      0.54476      .   S
    C109   O695      0.54476  1_565   S
    C271   O696      0.68626      .   S
    C261   O696      0.68626      .   S
    C185   O697      0.71014      .   S
    C176   O697      0.71014      .   S
    C185   O698      0.68627      .   S
    C195   O698      0.68627      .   S
    C94    O699      0.54325      .   S
    C257   O699      0.54325      .   S
    C228   O700      0.71097      .   S
    C232   O700      0.71097      .   S
    C228   O701      0.71497      .   S
    C213   O701      0.71497      .   S
    C286   O702      0.70054      .   S
    C306   O702      0.70054      .   S
    C257   O703      0.70324      .   S
    C258   O703      0.70324      .   S
    C176   O704      0.71846      .   S
    C180   O704      0.71846      .   S
    C308   O705      0.71092      .   S
    C304   O705      0.71092      .   S
    C308   O706      0.69217      .   S
    C311   O706      0.69217      .   S
    C232   O707      0.54252      .   S
    C66    O707      0.54252      .   S
    C252   O708      0.71016      .   S
    C261   O708      0.71016      .   S
    C252   O709      0.68437      .   S
    C333   O709      0.68437      .   S
    C181   O710      0.54325      .   S
    C10    O710      0.54325      .   S
    C181   O711      0.69191      .   S
    C179   O711      0.69191      .   S
    C210   O712      0.69284      .   S
    C213   O712      0.69284      .   S
    C210   O713      0.54479      .   S
    C47    O713      0.54479      .   S
    C304   O714      0.71933      .   S
    C292   O714      0.71933      .   S
    C25    O715      0.54466      .   S
    C195   O715      0.54466      .   S
    C261   O716      0.54476      .   S
    C98    O716      0.54476      .   S
    C195   O717      0.70859      .   S
    C189   O717      0.70859      .   S
    C367   O718      0.68216      .   S
    C311   O718      0.68216      .   S
    C213   O719      0.76210      .   S
    C226   O719      0.76210      .   S
    C311   O720      0.70944      .   S
    C307   O720      0.70944      .   S
    C74    O721      0.54737      .   S
    C239   O721      0.54737      .   S
    C239   O722      0.55091      .   S
    C75    O722      0.55091      .   S
    C239   O723      0.54881      .   S
    C76    O723      0.54881      .   S
    C258   O724      0.66454      .   S
    C333   O724      0.66454      .   S
    C258   O725      0.54648      .   S
    C95    O725      0.54648      .   S
    C180   O726      0.71544      .   S
    C179   O726      0.71544      .   S
    C180   O727      0.71033      .   S
    C184   O727      0.71033      .   S
    C306   O728      0.54535      .   S
    C148   O728      0.54535      .   S
    C306   O729      0.66826      .   S
    C336   O729      0.66826      .   S
    C179   O730      0.76106      .   S
    C173   O730      0.76106      .   S
    C292   O731      0.68704      .   S
    C336   O731      0.68704      .   S
    C292   O732      0.70942      .   S
    C310   O732      0.70942      .   S
    C189   O733      0.69234      .   S
    C184   O733      0.69234      .   S
    C189   O734      0.68588      .   S
    C342   O734      0.68588      .   S
    C184   O735      0.54342      .   S
    C13    O735      0.54342      .   S
    C336   O736      1.18514      .   S
    C3     O736      1.18514      .   S
    C307   O737      0.68588      .   S
    C310   O737      0.68588      .   S
    C307   O738      0.54450      .   S
    C149   O738      0.54450      .   S
    C48    O739      0.50332      .   S
    C349   O739      0.50332      .   S
    C226   O740      0.55267      .   S
    C61    O740      0.55267      .   S
    C226   O741      0.71350      .   S
    C349   O741      0.71350      .   S
    C226   O742      0.76927      .   S
    C240   O742      0.76927      .   S
    C340   O743      0.71274      .   S
    C173   O743      0.71274      .   S
    C340   O744      0.49577      .   S
    C4     O744      0.49577      .   S
    C81    O745      0.54885      .   S
    C242   O745      0.54885      .   S
    C173   O746      0.55260      .   S
    C7     O746      0.55260      .   S
    C173   O747      0.77401      .   S
    C174   O747      0.77401      .   S
    C310   O748      0.54519      .   S
    C152   O748      0.54519      .   S
    C342   O749      0.71975      .   S
    C200   O749      0.71975      .   S
    C331   O750      0.74011      .   S
    C240   O750      0.74011      .   S
    C331   O751      0.73896      .   S
    C242   O751      0.73896      .   S
    C331   O752      0.74007      .   S
    C243   O752      0.74007      .   S
    C77    O753      0.55003      .   S
    C240   O753      0.55003      .   S
    C20    O754      0.55060      .   S
    C191   O754      0.55060      .   S
    C153   O755      0.54913      .   S
    C312   O755      0.54913      .   S
    C80    O756      0.55000      .   S
    C242   O756      0.55000      .   S
    C21    O757      0.54938      .   S
    C191   O757      0.54938  1_655   S
    C83    O758      0.55026      .   S
    C243   O758      0.55026      .   S
    C240   O759      0.77464      .   S
    C241   O759      0.77464      .   S
    C242   O760      0.77964      .   S
    C246   O760      0.77964      .   S
    C82    O761      0.54974      .   S
    C243   O761      0.54974      .   S
    C135   O762      0.54977      .   S
    C291   O762      0.54977      .   S
    C243   O763      0.77684      .   S
    C244   O763      0.77684      .   S
    C191   O764      0.77140      .   S
    C174   O764      0.77140      .   S
    C191   O765      0.76848  1_655   S
    C183   O765      0.76848      .   S
    C141   O766      0.55039      .   S
    C300   O766      0.55039      .   S
    C128   O767      0.54820      .   S
    C283   O767      0.54820      .   S
    C174   O768      0.54861      .   S
    C8     O768      0.54861      .   S
    C144   O769      0.54893      .   S
    C301   O769      0.54893      .   S
    C363   O770      1.20920      .   S
    C3     O770      1.20920      .   S
    C312   O771      0.54803      .   S
    C154   O771      0.54803      .   S
    C312   O772      0.77619      .   S
    C291   O772      0.77619      .   S
    C312   O773      0.74846      .   S
    C338   O773      0.74846      .   S
    C354   O774      0.64156      .   S
    C247   O774      0.64156  1_545   S
    C200   O775      0.55032      .   S
    C31    O775      0.55032      .   S
    C200   O776      0.55051      .   S
    C30    O776      0.55051      .   S
    C200   O777      0.54799      .   S
    C29    O777      0.54799      .   S
    C291   O778      0.76482      .   S
    C313   O778      0.76482      .   S
    C368   O779      0.64187      .   S
    C313   O779      0.64187      .   S
    C3     O780      1.20522      .   S
    C345   O780      1.20522      .   S
    C3     O781      1.22066      .   S
    C338   O781      1.22066      .   S
    C241   O782      0.55124      .   S
    C78    O782      0.55124      .   S
    C241   O783      0.54820      .   S
    C79    O783      0.54820      .   S
    C300   O784      0.77241      .   S
    C301   O784      0.77241      .   S
    C246   O785      0.76509      .   S
    C247   O785      0.76509      .   S
    C301   O786      0.75056      .   S
    C338   O786      0.75056      .   S
    C12    O787      0.54922      .   S
    C183   O787      0.54922      .   S
