# CIF file generated by openbabel 2.4.90, see http://openbabel.sf.net
data_I
_chemical_name_common ''
_cell_length_a 13.971
_cell_length_b 15.661
_cell_length_c 19.606
_cell_angle_alpha 89.992
_cell_angle_beta 90.005
_cell_angle_gamma 90.014
_space_group_name_H-M_alt 'P 1'
_space_group_name_Hall 'P 1'
loop_
    _symmetry_equiv_pos_as_xyz
    x,y,z
loop_
    _atom_site_label
    _atom_site_type_symbol
    _atom_site_fract_x
    _atom_site_fract_y
    _atom_site_fract_z
    _atom_site_occupancy
    Zr0     Zr   0.69089   0.86001   0.02850   1.000
    Zr1     Zr   0.80967   0.14076   0.52817   1.000
    Zr2     Zr   0.30922   0.36028   0.47142   1.000
    Zr3     Zr   0.19068   0.63984   0.97150   1.000
    Zr4     Zr   0.08422   0.77348   0.02344   1.000
    Zr5     Zr   0.87718   0.97754   0.49685   1.000
    Zr6     Zr   0.41592   0.22668   0.52329   1.000
    Zr7     Zr   0.62292   0.02273   0.99662   1.000
    Zr8     Zr   0.91535   0.27556   0.47644   1.000
    Zr9     Zr   0.12268   0.47711   0.00000   1.000
    Zr10    Zr   0.58408   0.72625   0.97693   1.000
    Zr11    Zr   0.37721   0.52297   0.50300   1.000
    Zr12    Zr   0.17513   0.77444   0.03288   1.000
    Zr13    Zr   0.04160   0.71178   0.99438   1.000
    Zr14    Zr   0.85025   0.02628   0.44783   1.000
    Zr15    Zr   0.87038   0.00000   0.55888   1.000
    Zr16    Zr   0.32501   0.22559   0.53271   1.000
    Zr17    Zr   0.45842   0.28847   0.49428   1.000
    Zr18    Zr   0.64996   0.97410   0.94761   1.000
    Zr19    Zr   0.62972   0.99930   0.05868   1.000
    Zr20    Zr   0.82451   0.27707   0.46712   1.000
    Zr21    Zr   0.95776   0.21365   0.50543   1.000
    Zr22    Zr   0.14961   0.52587   0.05214   1.000
    Zr23    Zr   0.12959   0.50045   0.94111   1.000
    Zr24    Zr   0.67504   0.72523   0.96768   1.000
    Zr25    Zr   0.54146   0.78811   0.00571   1.000
    Zr26    Zr   0.35028   0.47424   0.55220   1.000
    Zr27    Zr   0.37038   0.49958   0.44124   1.000
    O28     O    0.13614   0.50149   0.02607   1.000
    O29     O    0.12614   0.48878   0.97056   1.000
    O30     O    0.61618   0.82406   0.01710   1.000
    O31     O    0.56277   0.75718   0.99132   1.000
    O32     O    0.12967   0.77396   0.02816   1.000
    O33     O    0.06291   0.74263   0.00891   1.000
    O34     O    0.66031   0.92965   0.04359   1.000
    O35     O    0.67042   0.91705   0.98805   1.000
    O36     O    0.68297   0.79262   0.99809   1.000
    O37     O    0.18291   0.70714   0.00219   1.000
    O38     O    0.17015   0.58285   0.01182   1.000
    O39     O    0.62632   0.01101   0.02765   1.000
    O40     O    0.33980   0.42993   0.45633   1.000
    O41     O    0.37379   0.51128   0.47212   1.000
    O42     O    0.86372   0.00191   0.47234   1.000
    O43     O    0.82996   0.08352   0.48800   1.000
    O44     O    0.86993   0.27632   0.47178   1.000
    O45     O    0.81709   0.20892   0.49765   1.000
    O46     O    0.38382   0.32438   0.48285   1.000
    O47     O    0.31711   0.29293   0.50206   1.000
    O48     O    0.32975   0.41726   0.51181   1.000
    O49     O    0.93655   0.24461   0.49094   1.000
    O50     O    0.43717   0.25758   0.50879   1.000
    O51     O    0.87378   0.98877   0.52787   1.000
    O52     O    0.36374   0.49860   0.52760   1.000
    O53     O    0.88371   0.17721   0.51680   1.000
    O54     O    0.37047   0.22613   0.52800   1.000
    O55     O    0.84003   0.07038   0.54353   1.000
    O56     O    0.16014   0.57015   0.95631   1.000
    O57     O    0.63644   0.99841   0.97211   1.000
    O58     O    0.62956   0.72574   0.97230   1.000
    O59     O    0.11614   0.67581   0.98294   1.000
    N60     N    0.69814   0.26320   0.83830   1.000
    O61     O    0.75086   0.21208   0.71230   1.000
    O62     O    0.64960   0.16488   0.91380   1.000
    N63     N    0.91120   0.80422   0.90200   1.000
    O64     O    0.98371   0.80861   0.96832   1.000
    O65     O    0.84343   0.83786   0.95925   1.000
    N66     N    0.08906   0.30481   0.59791   1.000
    O67     O    0.15680   0.33841   0.54067   1.000
    O68     O    0.01636   0.30986   0.53158   1.000
    N69     N    0.30184   0.76323   0.66142   1.000
    O70     O    0.24921   0.71177   0.78744   1.000
    O71     O    0.35044   0.66503   0.58396   1.000
    N72     N    0.80178   0.73688   0.33854   1.000
    O73     O    0.85040   0.83529   0.41401   1.000
    O74     O    0.74933   0.78818   0.21256   1.000
    N75     N    0.58839   0.19592   0.40189   1.000
    O76     O    0.65658   0.16249   0.45909   1.000
    O77     O    0.51620   0.19156   0.46819   1.000
    N78     N    0.41154   0.69560   0.09807   1.000
    O79     O    0.48380   0.69115   0.03189   1.000
    O80     O    0.34348   0.66196   0.04081   1.000
    N81     N    0.19817   0.23611   0.16147   1.000
    O82     O    0.14950   0.33470   0.08522   1.000
    O83     O    0.25068   0.28794   0.28742   1.000
loop_
    _geom_bond_atom_site_label_1
    _geom_bond_atom_site_label_2
    _geom_bond_distance
    _geom_bond_site_symmetry_2
    _ccdc_geom_bond_type
    Zr9    O28       0.66512      .   S
    Zr22   O28       0.66512      .   S
    Zr9    O29       0.60743  1_554   S
    Zr23   O29       0.60743      .   S
    Zr25   O30       1.20671      .   S
    Zr0    O30       1.20671      .   S
    Zr25   O31       0.63480  1_554   S
    Zr10   O31       0.63480      .   S
    Zr4    O32       0.64177      .   S
    Zr12   O32       0.64177      .   S
    Zr4    O33       0.63492      .   S
    Zr13   O33       0.63492  1_556   S
    Zr0    O34       1.20838      .   S
    Zr19   O34       1.20838      .   S
    Zr0    O35       1.22826  1_554   S
    Zr18   O35       1.22826      .   S
    Zr0    O36       1.21723  1_554   S
    Zr24   O36       1.21723      .   S
    Zr12   O37       1.21858      .   S
    Zr3    O37       1.21858  1_556   S
    Zr22   O38       1.22619      .   S
    Zr3    O38       1.22619  1_556   S
    Zr19   O39       0.63718  1_565   S
    Zr7    O39       0.63718  1_556   S
    Zr27   O40       1.20814      .   S
    Zr2    O40       1.20814      .   S
    Zr27   O41       0.63435      .   S
    Zr11   O41       0.63435      .   S
    Zr14   O42       0.64184      .   S
    Zr5    O42       0.64184  1_565   S
    Zr14   O43       1.22664      .   S
    Zr1    O43       1.22664      .   S
    Zr20   O44       0.64119      .   S
    Zr8    O44       0.64119      .   S
    Zr20   O45       1.22798      .   S
    Zr1    O45       1.22798      .   S
    Zr2    O46       1.20537      .   S
    Zr17   O46       1.20537      .   S
    Zr2    O47       1.21879      .   S
    Zr16   O47       1.21879      .   S
    Zr2    O48       1.22706      .   S
    Zr26   O48       1.22706      .   S
    Zr8    O49       0.63527      .   S
    Zr21   O49       0.63527      .   S
    Zr17   O50       0.63488      .   S
    Zr6    O50       0.63488      .   S
    Zr5    O51       0.63482      .   S
    Zr15   O51       0.63482  1_545   S
    Zr11   O52       0.64310      .   S
    Zr26   O52       0.64310      .   S
    Zr21   O53       1.20222      .   S
    Zr1    O53       1.20222      .   S
    Zr6    O54       0.64179      .   S
    Zr16   O54       0.64179      .   S
    Zr1    O55       1.21885      .   S
    Zr15   O55       1.21885      .   S
    Zr23   O56       1.20920      .   S
    Zr3    O56       1.20920      .   S
    Zr18   O57       0.64156      .   S
    Zr7    O57       0.64156  1_545   S
    Zr24   O58       0.64187      .   S
    Zr10   O58       0.64187      .   S
    Zr3    O59       1.20522      .   S
    Zr13   O59       1.20522      .   S
    N60    O61       2.69944      .   S
    Zr1    O61       3.86742      .   S
    N60    O62       2.24071      .   S
    Zr7    O62       2.78043      .   S
    N63    O64       1.64965      .   S
    Zr4    O64       1.85546  1_454   S
    N63    O65       1.56022      .   S
    Zr0    O65       2.55074  1_554   S
    N66    O67       1.55947      .   S
    Zr2    O67       2.54849      .   S
    N66    O68       1.65197      .   S
    Zr8    O68       1.85694  1_655   S
    N69    O70       2.70077      .   S
    Zr3    O70       3.86777      .   S
    N69    O71       2.26581      .   S
    Zr11   O71       2.75865      .   S
    N72    O73       2.24185      .   S
    Zr5    O73       2.78236      .   S
    N72    O74       2.69865      .   S
    Zr0    O74       3.86697      .   S
    N75    O76       1.56182      .   S
    Zr1    O76       2.55424      .   S
    N75    O77       1.64678      .   S
    Zr6    O77       1.85290      .   S
    N78    O79       1.64551      .   S
    Zr10   O79       1.85095  1_556   S
    N78    O80       1.56260      .   S
    Zr3    O80       2.55395  1_556   S
    N81    O82       2.25408      .   S
    Zr9    O82       2.81167      .   S
    N81    O83       2.70086      .   S
    Zr2    O83       3.86869      .   S
