# CIF file generated by openbabel 2.4.90, see http://openbabel.sf.net
data_I
_chemical_name_common ''
_cell_length_a 12.416
_cell_length_b 12.439
_cell_length_c 27.049
_cell_angle_alpha 90.02
_cell_angle_beta 89.986
_cell_angle_gamma 119.911
_space_group_name_H-M_alt 'P 1'
_space_group_name_Hall 'P 1'
loop_
    _symmetry_equiv_pos_as_xyz
    x,y,z
loop_
    _atom_site_label
    _atom_site_type_symbol
    _atom_site_fract_x
    _atom_site_fract_y
    _atom_site_fract_z
    _atom_site_occupancy
    Lv0     Lv   0.20875   0.33657   0.56134   1.000
    Lv1     Lv   0.87190   0.20908   0.22862   1.000
    Lv2     Lv   0.66270   0.87002   0.89594   1.000
    Lv3     Lv   0.87164   0.66267   0.10604   1.000
    Lv4     Lv   0.33736   0.12891   0.89594   1.000
    Lv5     Lv   0.79245   0.12918   0.77136   1.000
    Lv6     Lv   0.33740   0.20914   0.43846   1.000
    Lv7     Lv   0.79145   0.66238   0.56137   1.000
    Lv8     Lv   0.12822   0.78986   0.22857   1.000
    Lv9     Lv   0.66257   0.79027   0.43854   1.000
    Lv10    Lv   0.12815   0.33611   0.10597   1.000
    Lv11    Lv   0.20818   0.86993   0.77141   1.000
