# CIF file generated by openbabel 2.4.90, see http://openbabel.sf.net
data_I
_chemical_name_common ''
_cell_length_a 12.416
_cell_length_b 12.439
_cell_length_c 27.049
_cell_angle_alpha 90.02
_cell_angle_beta 89.986
_cell_angle_gamma 119.911
_space_group_name_H-M_alt 'P 1'
_space_group_name_Hall 'P 1'
loop_
    _symmetry_equiv_pos_as_xyz
    x,y,z
loop_
    _atom_site_label
    _atom_site_type_symbol
    _atom_site_fract_x
    _atom_site_fract_y
    _atom_site_fract_z
    _atom_site_occupancy
    H0      H    0.20160   0.86144   0.79141   1.000
    H1      H    0.66034   0.79610   0.45857   1.000
    H2      H    0.13682   0.33853   0.12596   1.000
    H3      H    0.79895   0.13762   0.79136   1.000
    H4      H    0.33968   0.20333   0.45849   1.000
    H5      H    0.86298   0.66029   0.12603   1.000
    H6      H    0.33942   0.13731   0.87593   1.000
    H7      H    0.86377   0.20337   0.20859   1.000
    H8      H    0.79760   0.65987   0.54137   1.000
    H9      H    0.66065   0.86165   0.87593   1.000
    H10     H    0.13638   0.79559   0.20854   1.000
    H11     H    0.20259   0.33911   0.54130   1.000
    C12     C    0.21476   0.87841   0.75140   1.000
    C13     C    0.66480   0.78443   0.41850   1.000
    C14     C    0.11948   0.33370   0.08597   1.000
    C15     C    0.78596   0.12074   0.75135   1.000
    C16     C    0.33513   0.21494   0.41842   1.000
    C17     C    0.88029   0.66505   0.08604   1.000
    C18     C    0.33529   0.12050   0.91594   1.000
    C19     C    0.88003   0.21480   0.24866   1.000
    C20     C    0.78529   0.66489   0.58137   1.000
    C21     C    0.66476   0.87840   0.91595   1.000
    C22     C    0.12005   0.78413   0.24860   1.000
    C23     C    0.21492   0.33403   0.58137   1.000
loop_
    _geom_bond_atom_site_label_1
    _geom_bond_atom_site_label_2
    _geom_bond_distance
    _geom_bond_site_symmetry_2
    _ccdc_geom_bond_type
    C14    H2        1.09871      .   S
    C17    H5        1.09863      .   S
    H10    C22       1.09852      .   S
    H7     C19       1.09868      .   S
    C16    H4        1.09865      .   S
    C13    H1        1.09852      .   S
    H11    C23       1.10089      .   S
    H8     C20       1.09878      .   S
    C15    H3        1.09885      .   S
    C12    H0        1.09916      .   S
    H6     C18       1.09863      .   S
    H9     C21       1.09868      .   S
