# CIF file generated by openbabel 2.4.90, see http://openbabel.sf.net
data_I
_chemical_name_common ''
_cell_length_a 12.416
_cell_length_b 12.439
_cell_length_c 27.049
_cell_angle_alpha 90.02
_cell_angle_beta 89.986
_cell_angle_gamma 119.911
_space_group_name_H-M_alt 'P 1'
_space_group_name_Hall 'P 1'
loop_
    _symmetry_equiv_pos_as_xyz
    x,y,z
loop_
    _atom_site_label
    _atom_site_type_symbol
    _atom_site_fract_x
    _atom_site_fract_y
    _atom_site_fract_z
    _atom_site_occupancy
    H0      H    0.33458   0.06118   0.77006   1.000
    H1      H    0.31836   0.03493   0.71092   1.000
    H2      H    0.12164   0.63898   0.78571   1.000
    H3      H    0.13403   0.57118   0.72900   1.000
    H4      H    0.03222   0.63397   0.73363   1.000
    H5      H    0.24609   0.70978   0.65478   1.000
    H6      H    0.30799   0.87167   0.65864   1.000
    H7      H    0.14432   0.77251   0.65648   1.000
    H8      H    0.72772   0.66375   0.43609   1.000
    H9      H    0.71719   0.68144   0.37711   1.000
    H10     H    0.51837   0.87762   0.45339   1.000
    H11     H    0.43918   0.86761   0.39735   1.000
    H12     H    0.60370   0.96831   0.40179   1.000
    H13     H    0.46684   0.75809   0.32180   1.000
    H14     H    0.56605   0.69482   0.32524   1.000
    H15     H    0.63129   0.85840   0.32400   1.000
    H16     H    0.93662   0.27231   0.10457   1.000
    H17     H    0.96280   0.28122   0.04543   1.000
    H18     H    0.36036   0.47913   0.11950   1.000
    H19     H    0.42744   0.55727   0.06309   1.000
    H20     H    0.36352   0.39300   0.06773   1.000
    H21     H    0.28800   0.53017   0.98861   1.000
    H22     H    0.12559   0.43241   0.99298   1.000
    H23     H    0.22308   0.36581   0.99073   1.000
    H24     H    0.66641   0.93784   0.76985   1.000
    H25     H    0.68253   0.96431   0.71074   1.000
    H26     H    0.87879   0.36017   0.78573   1.000
    H27     H    0.86612   0.42788   0.72976   1.000
    H28     H    0.96823   0.36542   0.73360   1.000
    H29     H    0.75444   0.28937   0.65482   1.000
    H30     H    0.69247   0.12747   0.65863   1.000
    H31     H    0.85616   0.22658   0.65644   1.000
    H32     H    0.27206   0.33552   0.43605   1.000
    H33     H    0.28268   0.31787   0.37706   1.000
    H34     H    0.48165   0.12180   0.45319   1.000
    H35     H    0.56078   0.13186   0.39711   1.000
    H36     H    0.39628   0.03114   0.40158   1.000
    H37     H    0.53305   0.24144   0.32165   1.000
    H38     H    0.43381   0.30468   0.32517   1.000
    H39     H    0.36859   0.14110   0.32385   1.000
    H40     H    0.06317   0.72645   0.10400   1.000
    H41     H    0.03693   0.71747   0.04546   1.000
    H42     H    0.63945   0.51971   0.11961   1.000
    H43     H    0.57231   0.44148   0.06321   1.000
    H44     H    0.63625   0.60576   0.06784   1.000
    H45     H    0.71178   0.46850   0.98868   1.000
    H46     H    0.87417   0.56634   0.99303   1.000
    H47     H    0.77660   0.63284   0.99083   1.000
    H48     H    0.27250   0.93760   0.89755   1.000
    H49     H    0.28255   0.96433   0.95664   1.000
    H50     H    0.48139   0.36000   0.88164   1.000
    H51     H    0.56142   0.42780   0.93767   1.000
    H52     H    0.39688   0.36502   0.93369   1.000
    H53     H    0.53441   0.28968   0.01262   1.000
    H54     H    0.43529   0.12765   0.00879   1.000
    H55     H    0.36986   0.22609   0.01081   1.000
    H56     H    0.06361   0.33517   0.23109   1.000
    H57     H    0.03531   0.31734   0.29007   1.000
    H58     H    0.64046   0.12203   0.21403   1.000
    H59     H    0.57155   0.13190   0.27018   1.000
    H60     H    0.63530   0.03112   0.26550   1.000
    H61     H    0.70912   0.24157   0.34560   1.000
    H62     H    0.87148   0.30453   0.34200   1.000
    H63     H    0.77307   0.14100   0.34332   1.000
    H64     H    0.66397   0.72663   0.56284   1.000
    H65     H    0.68127   0.71764   0.62198   1.000
    H66     H    0.88075   0.51901   0.54806   1.000
    H67     H    0.86896   0.44071   0.60451   1.000
    H68     H    0.96962   0.60491   0.59992   1.000
    H69     H    0.75633   0.46826   0.67880   1.000
    H70     H    0.69202   0.56634   0.67429   1.000
    H71     H    0.85601   0.63257   0.67670   1.000
    H72     H    0.72773   0.06137   0.89766   1.000
    H73     H    0.71743   0.03450   0.95674   1.000
    H74     H    0.51860   0.63898   0.88154   1.000
    H75     H    0.43839   0.57112   0.93753   1.000
    H76     H    0.60292   0.63374   0.93360   1.000
    H77     H    0.46534   0.70917   0.01255   1.000
    H78     H    0.56457   0.87119   0.00880   1.000
    H79     H    0.62989   0.77265   0.01078   1.000
    H80     H    0.93656   0.66361   0.23090   1.000
    H81     H    0.96471   0.68163   0.28996   1.000
    H82     H    0.35964   0.87700   0.21397   1.000
    H83     H    0.42858   0.86731   0.27012   1.000
    H84     H    0.36470   0.96797   0.26546   1.000
    H85     H    0.29099   0.75773   0.34550   1.000
    N86     N    0.33062   0.33222   0.40999   1.000
    N87     N    0.00215   0.66890   0.07817   1.000
    N88     N    0.33081   0.99855   0.92382   1.000
    N89     N    0.00180   0.33191   0.25710   1.000
    H90     H    0.12862   0.69471   0.34197   1.000
    H91     H    0.22700   0.85824   0.34325   1.000
    H92     H    0.33639   0.27252   0.56274   1.000
    H93     H    0.31906   0.28136   0.62190   1.000
    H94     H    0.11924   0.47981   0.54820   1.000
    H95     H    0.13091   0.55790   0.60472   1.000
    H96     H    0.03043   0.39369   0.60000   1.000
    H97     H    0.24374   0.53052   0.67894   1.000
    H98     H    0.30820   0.43258   0.67430   1.000
    H99     H    0.14420   0.36619   0.67677   1.000
    C100    C    0.22580   0.77170   0.72767   1.000
    C101    C    0.12215   0.64601   0.74523   1.000
    C102    C    0.23124   0.78201   0.67113   1.000
    C103    C    0.54759   0.77501   0.39476   1.000
    C104    C    0.52553   0.87838   0.41291   1.000
    C105    C    0.55342   0.77149   0.33820   1.000
    C106    C    0.22650   0.45015   0.06176   1.000
    C107    C    0.35240   0.47152   0.07905   1.000
    C108    C    0.21512   0.44412   0.00520   1.000
    C109    C    0.77475   0.22740   0.72767   1.000
    C110    C    0.87824   0.35317   0.74524   1.000
    C111    C    0.76925   0.21711   0.67113   1.000
    C112    C    0.45234   0.22443   0.39462   1.000
    C113    C    0.47445   0.12106   0.41270   1.000
    C114    C    0.44646   0.22800   0.33807   1.000
    C115    C    0.77325   0.54858   0.06183   1.000
    C116    C    0.64737   0.52725   0.07916   1.000
    C117    C    0.78461   0.55458   0.00533   1.000
    C118    C    0.45281   0.22729   0.93972   1.000
    C119    C    0.47480   0.35296   0.92212   1.000
    C120    C    0.44768   0.21707   0.99626   1.000
    C121    C    0.77249   0.22439   0.27250   1.000
    C122    C    0.64703   0.12112   0.25450   1.000
    C123    C    0.78210   0.22793   0.32910   1.000
    C124    C    0.77558   0.54832   0.60563   1.000
    C125    C    0.88004   0.52659   0.58850   1.000
    C126    C    0.76980   0.55438   0.66212   1.000
    C127    C    0.54717   0.77161   0.93968   1.000
    C128    C    0.52509   0.64593   0.92203   1.000
    C129    C    0.55217   0.78175   0.99623   1.000
    C130    C    0.22763   0.77467   0.27250   1.000
    C131    C    0.35305   0.87798   0.25444   1.000
    C132    C    0.21799   0.77128   0.32908   1.000
    C133    C    0.22452   0.45051   0.60570   1.000
    C134    C    0.11996   0.47212   0.58864   1.000
    C135    C    0.23035   0.44444   0.66219   1.000
    N136    N    0.33215   0.00042   0.74372   1.000
    N137    N    0.66921   0.66710   0.41004   1.000
    N138    N    0.99761   0.32983   0.07813   1.000
    N139    N    0.66869   0.99864   0.74350   1.000
    N140    N    0.66743   0.66907   0.58926   1.000
    N141    N    0.66929   0.00038   0.92388   1.000
    N142    N    0.99832   0.66698   0.25707   1.000
    N143    N    0.33287   0.33000   0.58921   1.000
loop_
    _geom_bond_atom_site_label_1
    _geom_bond_atom_site_label_2
    _geom_bond_distance
    _geom_bond_site_symmetry_2
    _ccdc_geom_bond_type
    C108   C106      1.53480      .   S
    C108   H21       1.09544  1_554   S
    C108   H23       1.09893  1_554   S
    C108   H22       1.09753  1_554   S
    C117   C115      1.53314      .   S
    C117   H45       1.09599  1_554   S
    C117   H47       1.09918  1_554   S
    C117   H46       1.09833  1_554   S
    H54    C120      1.09792  1_554   S
    H78    C129      1.09819  1_554   S
    H79    C129      1.09909  1_554   S
    H55    C120      1.09951  1_554   S
    H77    C129      1.09611  1_554   S
    H53    C120      1.09597  1_554   S
    H17    N138      1.03631      .   S
    H41    N87       1.03649      .   S
    C106   C107      1.52286      .   S
    C115   C116      1.52294      .   S
    H19    C107      1.09598      .   S
    H43    C116      1.09598      .   S
    H20    C107      1.09586      .   S
    H44    C116      1.09595      .   S
    N138   H16       1.02790      .   S
    N87    H40       1.01667      .   S
    C107   H18       1.09841      .   S
    C116   H42       1.09837      .   S
    H82    C131      1.09822      .   S
    H58    C122      1.09821      .   S
    H80    N142      1.02909      .   S
    H56    N89       1.02678      .   S
    C131   H84       1.09598      .   S
    C131   H83       1.09603      .   S
    C131   C130      1.52293      .   S
    C122   H60       1.09574      .   S
    C122   H59       1.09608      .   S
    C122   C121      1.52247      .   S
    N142   H81       1.03648      .   S
    N89    H57       1.03768      .   S
    C121   C123      1.53456      .   S
    C130   C132      1.53403      .   S
    H37    C114      1.09608      .   S
    H13    C105      1.09619      .   S
    H39    C114      1.09945      .   S
    H15    C105      1.09942      .   S
    H38    C114      1.09819      .   S
    H14    C105      1.09821      .   S
    C132   H90       1.09822      .   S
    C132   H91       1.09937      .   S
    C132   H85       1.09527      .   S
    C123   H62       1.09842      .   S
    C123   H63       1.09959      .   S
    C123   H61       1.09636      .   S
    C114   C112      1.53309      .   S
    C105   C103      1.53323      .   S
    H33    N86       1.03618      .   S
    H9     N137      1.03628      .   S
    C112   C113      1.52318      .   S
    C103   C104      1.52319      .   S
    H35    C113      1.09599      .   S
    H11    C104      1.09611      .   S
    H36    C113      1.09586      .   S
    H12    C104      1.09594      .   S
    N86    H32       1.02791      .   S
    N137   H8        1.02784      .   S
    C113   H34       1.09854      .   S
    C104   H10       1.09819      .   S
    H66    C125      1.09829      .   S
    H94    C134      1.09848      .   S
    H92    N143      1.02790      .   S
    H64    N140      1.02774      .   S
    C125   H68       1.09585      .   S
    C125   H67       1.09600      .   S
    C125   C124      1.52289      .   S
    C134   H96       1.09562      .   S
    C134   H95       1.09600      .   S
    C134   C133      1.52281      .   S
    N143   H93       1.03641      .   S
    N140   H65       1.03638      .   S
    C124   C126      1.53326      .   S
    C133   C135      1.53341      .   S
    H5     C102      1.09618      .   S
    H29    C111      1.09622      .   S
    H31    C111      1.09956      .   S
    H7     C102      1.09948      .   S
    H30    C111      1.09826      .   S
    H6     C102      1.09828      .   S
    C126   H70       1.09828      .   S
    C126   H71       1.09954      .   S
    C126   H69       1.09572      .   S
    C135   H98       1.09807      .   S
    C135   H99       1.09949      .   S
    C135   H97       1.09618      .   S
    C102   C100      1.53342      .   S
    C111   C109      1.53335      .   S
    H25    N139      1.03442      .   S
    H1     N136      1.03650      .   S
    C109   C110      1.52297      .   S
    C100   C101      1.52301      .   S
    H3     C101      1.10344      .   S
    H27    C110      1.09609      .   S
    H28    C110      1.09585      .   S
    H4     C101      1.09594      .   S
    N139   H24       1.02945      .   S
    N136   H0        1.02790      .   S
    C101   H2        1.09823      .   S
    C110   H26       1.09839      .   S
    H74    C128      1.09840      .   S
    H50    C119      1.09824      .   S
    H48    N88       1.02776      .   S
    H72    N141      1.02771      .   S
    C128   H76       1.09587      .   S
    C128   H75       1.09620      .   S
    C128   C127      1.52299      .   S
    C119   H52       1.09591      .   S
    C119   H51       1.09619      .   S
    C119   C118      1.52303      .   S
    N88    H49       1.03633      .   S
    N141   H73       1.03651      .   S
    C127   C129      1.53349      .   S
    C118   C120      1.53334      .   S
