# CIF file generated by openbabel 2.4.90, see http://openbabel.sf.net
data_I
_chemical_name_common ''
_cell_length_a 12.416
_cell_length_b 12.439
_cell_length_c 27.049
_cell_angle_alpha 90.02
_cell_angle_beta 89.986
_cell_angle_gamma 119.911
_space_group_name_H-M_alt 'P 1'
_space_group_name_Hall 'P 1'
loop_
    _symmetry_equiv_pos_as_xyz
    x,y,z
loop_
    _atom_site_label
    _atom_site_type_symbol
    _atom_site_fract_x
    _atom_site_fract_y
    _atom_site_fract_z
    _atom_site_occupancy
    Zn0     Zn   0.99997   0.99935   0.33345   1.000
    Zn1     Zn   0.99992   0.99923   0.00159   1.000
    Zn2     Zn   0.00051   0.99939   0.66634   1.000
    Pt3     Pt   0.50035   0.99944   0.74488   1.000
    Pt4     Pt   0.49991   0.49968   0.41106   1.000
    Pt5     Pt   0.99987   0.49937   0.07904   1.000
    Pt6     Pt   0.50006   0.99950   0.92268   1.000
    Pt7     Pt   0.00010   0.49948   0.25616   1.000
    Pt8     Pt   0.50010   0.49955   0.58834   1.000
    Au9     Au   0.38954   0.77798   0.83374   1.000
    Au10    Au   0.38799   0.60985   0.49992   1.000
    Au11    Au   0.22218   0.60942   0.16746   1.000
    Au12    Au   0.61078   0.22099   0.83379   1.000
    Au13    Au   0.61201   0.38937   0.49981   1.000
    Au14    Au   0.77778   0.38946   0.16750   1.000
    C15     C    0.10133   0.88523   0.73003   1.000
    C16     C    0.78529   0.89813   0.39770   1.000
    C17     C    0.11194   0.21298   0.06509   1.000
    C18     C    0.89965   0.11425   0.73002   1.000
    C19     C    0.21470   0.10113   0.39765   1.000
    C20     C    0.88778   0.78569   0.06515   1.000
    C21     C    0.21489   0.11396   0.93709   1.000
    C22     C    0.88675   0.10089   0.26928   1.000
    C23     C    0.89879   0.78548   0.60210   1.000
    C24     C    0.78511   0.88485   0.93708   1.000
    C25     C    0.11318   0.89794   0.26925   1.000
    C26     C    0.10156   0.21325   0.60211   1.000
    S27     S    0.37754   0.78408   0.74674   1.000
    S28     S    0.40777   0.62334   0.41300   1.000
    S29     S    0.21553   0.59025   0.08054   1.000
    S30     S    0.62293   0.21478   0.74679   1.000
    S31     S    0.59213   0.37610   0.41289   1.000
    S32     S    0.78422   0.40849   0.08058   1.000
    S33     S    0.59229   0.21487   0.92070   1.000
    S34     S    0.78441   0.37619   0.25439   1.000
    S35     S    0.62465   0.40836   0.58675   1.000
    S36     S    0.40778   0.78414   0.92074   1.000
    S37     S    0.21581   0.62287   0.25436   1.000
    S38     S    0.37540   0.59061   0.58685   1.000
    O39     O    0.13278   0.98159   0.70244   1.000
    O40     O    0.99531   0.80078   0.73975   1.000
    O41     O    0.85002   0.86732   0.36953   1.000
    O42     O    0.80695   0.00000   0.40835   1.000
    O43     O    0.01552   0.14830   0.03740   1.000
    O44     O    0.19589   0.19071   0.07519   1.000
    O45     O    0.86858   0.01782   0.70250   1.000
    O46     O    0.00000   0.19905   0.73976   1.000
    O47     O    0.14998   0.13175   0.36941   1.000
    O48     O    0.19310   0.99569   0.40836   1.000
    O49     O    0.98419   0.85030   0.03746   1.000
    O50     O    0.80380   0.80794   0.07524   1.000
    O51     O    0.14985   0.01790   0.96470   1.000
    O52     O    0.19368   0.19854   0.92707   1.000
    O53     O    0.98190   0.13145   0.29760   1.000
    O54     O    0.80330   0.99546   0.25835   1.000
    O55     O    0.86761   0.85021   0.63010   1.000
    O56     O    0.00000   0.80725   0.59170   1.000
    O57     O    0.85022   0.98090   0.96477   1.000
    O58     O    0.80628   0.80025   0.92703   1.000
    O59     O    0.01800   0.86723   0.29760   1.000
    O60     O    0.19655   0.00000   0.25835   1.000
    O61     O    0.13298   0.14861   0.62990   1.000
    O62     O    0.99559   0.19119   0.59100   1.000
    Ts63    Ts   0.44428   0.99977   0.74449   1.000
    Ts64    Ts   0.55646   0.99917   0.74442   1.000
    Ts65    Ts   0.44348   0.44386   0.41070   1.000
    Ts66    Ts   0.55634   0.55549   0.41072   1.000
    Ts67    Ts   0.00063   0.55588   0.07875   1.000
    Ts68    Ts   0.99912   0.44285   0.07874   1.000
    Ts69    Ts   0.44365   0.99918   0.92306   1.000
    Ts70    Ts   0.55647   0.99979   0.92308   1.000
    Ts71    Ts   0.00067   0.44362   0.25647   1.000
    Ts72    Ts   0.99950   0.55531   0.25646   1.000
    Ts73    Ts   0.55587   0.55606   0.58865   1.000
    Ts74    Ts   0.44435   0.44303   0.58863   1.000
    Og75    Og   0.13914   0.88296   0.73715   1.000
    Og76    Og   0.74513   0.86023   0.40463   1.000
    Og77    Og   0.11445   0.25322   0.07205   1.000
    Og78    Og   0.86175   0.11641   0.73713   1.000
    Og79    Og   0.25485   0.13907   0.40457   1.000
    Og80    Og   0.88528   0.74548   0.07211   1.000
    Og81    Og   0.25502   0.11614   0.93004   1.000
    Og82    Og   0.88451   0.13886   0.26241   1.000
    Og83    Og   0.86095   0.74528   0.59519   1.000
    Og84    Og   0.74499   0.88270   0.93004   1.000
    Og85    Og   0.11547   0.86000   0.26237   1.000
    Og86    Og   0.13935   0.25351   0.59520   1.000
    Ts87    Ts   0.32696   0.77995   0.74038   1.000
    Ts88    Ts   0.45438   0.67390   0.40692   1.000
    Ts89    Ts   0.21918   0.54355   0.07428   1.000
    Ts90    Ts   0.67353   0.21899   0.74042   1.000
    Ts91    Ts   0.54553   0.32554   0.40680   1.000
    Ts92    Ts   0.78057   0.45519   0.07433   1.000
    Ts93    Ts   0.54580   0.21901   0.92704   1.000
    Ts94    Ts   0.78044   0.32559   0.26043   1.000
    Ts95    Ts   0.67496   0.45501   0.59304   1.000
    Ts96    Ts   0.45424   0.77996   0.92705   1.000
    Ts97    Ts   0.21975   0.67347   0.26041   1.000
    Ts98    Ts   0.32511   0.54391   0.59313   1.000
loop_
    _geom_bond_atom_site_label_1
    _geom_bond_atom_site_label_2
    _geom_bond_distance
    _geom_bond_site_symmetry_2
    _ccdc_geom_bond_type
    Zn1    O43       2.01373  1_665   S
    Zn1    O49       2.01283      .   S
    Zn1    O51       2.02063  1_664   S
    Zn1    O57       2.01906  1_554   S
    O43    C17       1.29651      .   S
    O49    C20       1.29626      .   S
    C17    O44       1.23530      .   S
    C20    O50       1.23518      .   S
    Pt5    S29       2.33029  1_655   S
    Pt5    S32       2.33022      .   S
    S29    Au11      2.36039      .   S
    S32    Au14      2.36041      .   S
    Au11   S37       2.36056      .   S
    Au14   S34       2.36046      .   S
    S37    Pt7       2.33054      .   S
    S34    Pt7       2.33024  1_655   S
    O60    C25       1.20814  1_545   S
    O54    C22       1.23513  1_565   S
    C25    O59       1.29620      .   S
    C22    O53       1.29589      .   S
    O59    Zn0       2.01420  1_455   S
    O53    Zn0       2.01483  1_545   S
    Zn0    O47       2.01690  1_665   S
    Zn0    O41       2.01666      .   S
    O47    C19       1.29613      .   S
    O41    C16       1.29611      .   S
    C19    O48       1.23520  1_545   S
    C16    O42       1.19205  1_565   S
    Pt4    S31       2.33062      .   S
    Pt4    S28       2.33070      .   S
    S31    Au13      2.36120      .   S
    S28    Au10      2.36115      .   S
    Au13   S35       2.36082      .   S
    Au10   S38       2.36084      .   S
    S35    Pt8       2.33016      .   S
    S38    Pt8       2.33036      .   S
    O62    C26       1.23969  1_655   S
    O56    C23       1.17989  1_455   S
    C23    O55       1.29695      .   S
    C26    O61       1.29505      .   S
    O61    Zn2       2.01936  1_545   S
    O55    Zn2       2.01812  1_655   S
    Zn2    O39       2.01576      .   S
    Zn2    O45       2.01637  1_465   S
    O39    C15       1.29603      .   S
    O45    C18       1.29605      .   S
    C18    O46       1.19320  1_655   S
    C15    O40       1.23542  1_455   S
    Pt3    S27       2.33032      .   S
    Pt3    S30       2.32986  1_565   S
    S27    Au9       2.36164      .   S
    S30    Au12      2.36175      .   S
    Au9    S36       2.36175      .   S
    Au12   S33       2.35952      .   S
    S33    Pt6       2.33054  1_545   S
    S36    Pt6       2.33043      .   S
    O58    C24       1.23541      .   S
    O52    C21       1.23541      .   S
    C24    O57       1.29553      .   S
    C21    O51       1.29450      .   S
    Pt3    Ts63      0.69825      .   S
    Pt3    Ts64      0.69846      .   S
    Pt4    Ts65      0.69853      .   S
    Pt4    Ts66      0.69845      .   S
    Pt5    Ts67      0.69832  1_655   S
    Pt5    Ts68      0.69834      .   S
    Pt6    Ts69      0.69858      .   S
    Pt6    Ts70      0.69866      .   S
    Pt7    Ts71      0.69837      .   S
    Pt7    Ts72      0.69828  1_455   S
    Pt8    Ts73      0.69873      .   S
    Pt8    Ts74      0.69861      .   S
    C15    Og75      0.52113      .   S
    C16    Og76      0.52119      .   S
    C17    Og77      0.52085      .   S
    C18    Og78      0.52125      .   S
    C19    Og79      0.52114      .   S
    C20    Og80      0.52081      .   S
    C21    Og81      0.52141      .   S
    C22    Og82      0.52115      .   S
    C23    Og83      0.52089      .   S
    C24    Og84      0.52140      .   S
    C25    Og85      0.52104      .   S
    C26    Og86      0.52115      .   S
    S27    Ts87      0.62809      .   S
    S28    Ts88      0.62809      .   S
    S29    Ts89      0.62802      .   S
    S30    Ts90      0.62803      .   S
    S31    Ts91      0.62806      .   S
    S32    Ts92      0.62802      .   S
    S33    Ts93      0.62842      .   S
    S34    Ts94      0.62796      .   S
    S35    Ts95      0.62800      .   S
    S36    Ts96      0.62815      .   S
    S37    Ts97      0.62809      .   S
    S38    Ts98      0.62812      .   S
