# CIF file generated by openbabel 2.4.90, see http://openbabel.sf.net
data_I
_chemical_name_common ''
_cell_length_a 12.416
_cell_length_b 12.439
_cell_length_c 27.049
_cell_angle_alpha 90.02
_cell_angle_beta 89.986
_cell_angle_gamma 119.911
_space_group_name_H-M_alt 'P 1'
_space_group_name_Hall 'P 1'
loop_
    _symmetry_equiv_pos_as_xyz
    x,y,z
loop_
    _atom_site_label
    _atom_site_type_symbol
    _atom_site_fract_x
    _atom_site_fract_y
    _atom_site_fract_z
    _atom_site_occupancy
    N0      N    0.20875   0.33657   0.56134   1.000
    N1      N    0.87190   0.20908   0.22862   1.000
    N2      N    0.66270   0.87002   0.89594   1.000
    N3      N    0.87164   0.66267   0.10604   1.000
    N4      N    0.33736   0.12891   0.89594   1.000
    N5      N    0.79245   0.12918   0.77136   1.000
    N6      N    0.33740   0.20914   0.43846   1.000
    N7      N    0.79145   0.66238   0.56137   1.000
    N8      N    0.12822   0.78986   0.22857   1.000
    N9      N    0.66257   0.79027   0.43854   1.000
    N10     N    0.12815   0.33611   0.10597   1.000
    N11     N    0.20818   0.86993   0.77141   1.000
    Zr12    Zr   0.50016   0.99947   0.83376   1.000
    Zr13    Zr   0.99993   0.99935   0.00114   1.000
    O14     O    0.93888   0.84668   0.04598   1.000
    O15     O    0.15308   0.06121   0.95618   1.000
    O16     O    0.06093   0.15204   0.04595   1.000
    O17     O    0.84687   0.93759   0.95619   1.000
    Zr18    Zr   0.99999   0.49944   0.16750   1.000
    Zr19    Zr   0.99959   0.99955   0.66598   1.000
    O20     O    0.09154   0.15233   0.62126   1.000
    O21     O    0.90861   0.06144   0.71100   1.000
    O22     O    0.90817   0.84667   0.62127   1.000
    O23     O    0.09135   0.93771   0.71102   1.000
    Zr24    Zr   0.50000   0.49961   0.49983   1.000
    Zr25    Zr   0.99998   0.99895   0.33345   1.000
    O26     O    0.06120   0.90720   0.28860   1.000
    O27     O    0.93881   0.09121   0.28862   1.000
    O28     O    0.84689   0.90736   0.37838   1.000
    O29     O    0.15307   0.09127   0.37835   1.000
    O30     O    0.53826   0.59744   0.44948   1.000
    O31     O    0.59780   0.53821   0.55027   1.000
    O32     O    0.40228   0.46088   0.55028   1.000
    O33     O    0.46168   0.40186   0.44944   1.000
    O34     O    0.05951   0.59724   0.21779   1.000
    O35     O    0.94083   0.53816   0.11709   1.000
    O36     O    0.05903   0.46065   0.11709   1.000
    O37     O    0.94054   0.40170   0.21781   1.000
    O38     O    0.40261   0.93984   0.78313   1.000
    O39     O    0.53823   0.93981   0.88436   1.000
    O40     O    0.46194   0.05912   0.88436   1.000
    O41     O    0.59788   0.05915   0.78310   1.000
loop_
    _geom_bond_atom_site_label_1
    _geom_bond_atom_site_label_2
    _geom_bond_distance
    _geom_bond_site_symmetry_2
    _ccdc_geom_bond_type
    Zr13   O14       2.05358      .   S
    N3     O14       2.58289      .   S
    Zr13   O15       2.05595  1_664   S
    N4     O15       2.58410      .   S
    Zr13   O16       2.05274  1_665   S
    N10    O16       2.58208      .   S
    Zr13   O17       2.05542  1_554   S
    N2     O17       2.58357      .   S
    Zr19   O20       2.05315  1_665   S
    N0     O20       2.58316      .   S
    Zr19   O21       2.05372  1_565   S
    N5     O21       2.58162      .   S
    Zr19   O22       2.05280      .   S
    N7     O22       2.58170      .   S
    Zr19   O23       2.06132  1_655   S
    N11    O23       2.58930      .   S
    Zr25   O26       2.05328  1_655   S
    N8     O26       2.58230      .   S
    Zr25   O27       2.05780  1_565   S
    N1     O27       2.58674      .   S
    Zr25   O28       2.05621      .   S
    N9     O28       2.58487      .   S
    Zr25   O29       2.05664  1_665   S
    N6     O29       2.58548      .   S
    N9     O30       2.12870      .   S
    Zr24   O30       1.72778      .   S
    Zr24   O31       1.72794      .   S
    N7     O31       2.13374      .   S
    Zr24   O32       1.72719      .   S
    N0     O32       2.13274      .   S
    Zr24   O33       1.72761      .   S
    N6     O33       2.12764      .   S
    N8     O34       2.12479      .   S
    Zr18   O34       1.72589  1_655   S
    Zr18   O35       1.72751      .   S
    N3     O35       2.13399      .   S
    Zr18   O36       1.72665  1_655   S
    N10    O36       2.13358      .   S
    Zr18   O37       1.72633      .   S
    N1     O37       2.12520      .   S
    N11    O38       2.14266      .   S
    Zr12   O38       1.73113      .   S
    Zr12   O39       1.73175      .   S
    N2     O39       2.13972      .   S
    Zr12   O40       1.73181  1_565   S
    N4     O40       2.14078      .   S
    Zr12   O41       1.73269  1_565   S
    N5     O41       2.14410      .   S
