# CIF file generated by openbabel 2.4.90, see http://openbabel.sf.net
data_I
_chemical_name_common ''
_cell_length_a 12.416
_cell_length_b 12.439
_cell_length_c 27.049
_cell_angle_alpha 90.02
_cell_angle_beta 89.986
_cell_angle_gamma 119.911
_space_group_name_H-M_alt 'P 1'
_space_group_name_Hall 'P 1'
loop_
    _symmetry_equiv_pos_as_xyz
    x,y,z
loop_
    _atom_site_label
    _atom_site_type_symbol
    _atom_site_fract_x
    _atom_site_fract_y
    _atom_site_fract_z
    _atom_site_occupancy
    N0      N    0.20875   0.33657   0.56134   1.000
    N1      N    0.87190   0.20908   0.22862   1.000
    N2      N    0.66270   0.87002   0.89594   1.000
    N3      N    0.87164   0.66267   0.10604   1.000
    N4      N    0.33736   0.12891   0.89594   1.000
    N5      N    0.79245   0.12918   0.77136   1.000
    N6      N    0.33740   0.20914   0.43846   1.000
    N7      N    0.79145   0.66238   0.56137   1.000
    N8      N    0.12822   0.78986   0.22857   1.000
    N9      N    0.66257   0.79027   0.43854   1.000
    N10     N    0.12815   0.33611   0.10597   1.000
    N11     N    0.20818   0.86993   0.77141   1.000
    Zr12    Zr   0.50016   0.99947   0.83376   1.000
    O13     O    0.42776   0.99120   0.87919   1.000
    O14     O    0.57245   0.00774   0.87922   1.000
    O15     O    0.63141   0.12708   0.77794   1.000
    O16     O    0.43623   0.00776   0.78835   1.000
    O17     O    0.56435   0.99123   0.78827   1.000
    O18     O    0.36898   0.87193   0.77791   1.000
    O19     O    0.49612   0.12705   0.88952   1.000
    O20     O    0.50401   0.87188   0.88951   1.000
    Zr21    Zr   0.99993   0.99935   0.00114   1.000
    O22     O    0.93888   0.84668   0.04598   1.000
    O23     O    0.15308   0.06121   0.95618   1.000
    O24     O    0.06093   0.15204   0.04595   1.000
    O25     O    0.84687   0.93759   0.95619   1.000
    Zr26    Zr   0.99999   0.49944   0.16750   1.000
    O27     O    0.00863   0.43568   0.21276   1.000
    O28     O    0.99143   0.56321   0.21273   1.000
    O29     O    0.99110   0.42698   0.12241   1.000
    O30     O    0.00877   0.57182   0.12237   1.000
    O31     O    0.87246   0.36773   0.22286   1.000
    O32     O    0.12697   0.49431   0.11178   1.000
    O33     O    0.87290   0.50449   0.11182   1.000
    O34     O    0.12760   0.63127   0.22284   1.000
    Zr35    Zr   0.99959   0.99955   0.66598   1.000
    O36     O    0.09154   0.15233   0.62126   1.000
    O37     O    0.90861   0.06144   0.71100   1.000
    O38     O    0.90817   0.84667   0.62127   1.000
    O39     O    0.09135   0.93771   0.71102   1.000
    Zr40    Zr   0.50000   0.49961   0.49983   1.000
    O41     O    0.36809   0.49461   0.55563   1.000
    O42     O    0.63195   0.50442   0.55559   1.000
    O43     O    0.49576   0.36780   0.44441   1.000
    O44     O    0.50420   0.63153   0.44448   1.000
    O45     O    0.42759   0.43592   0.45447   1.000
    O46     O    0.57231   0.56334   0.45449   1.000
    O47     O    0.56366   0.57199   0.54495   1.000
    O48     O    0.43648   0.42716   0.54493   1.000
    Zr49    Zr   0.99998   0.99895   0.33345   1.000
    O50     O    0.06120   0.90720   0.28860   1.000
    O51     O    0.93881   0.09121   0.28862   1.000
    O52     O    0.84689   0.90736   0.37838   1.000
    O53     O    0.15307   0.09127   0.37835   1.000
loop_
    _geom_bond_atom_site_label_1
    _geom_bond_atom_site_label_2
    _geom_bond_distance
    _geom_bond_site_symmetry_2
    _ccdc_geom_bond_type
    Zr12   O13       1.49541      .   S
    N4     O13       2.51316  1_545   S
    Zr12   O14       1.49565  1_565   S
    N2     O14       2.51198  1_565   S
    Zr12   O15       2.20811  1_565   S
    N5     O15       1.99452      .   S
    Zr12   O16       1.49387  1_565   S
    N11    O16       2.51509  1_565   S
    Zr12   O17       1.49687      .   S
    N5     O17       2.51559  1_545   S
    Zr12   O18       2.20778      .   S
    N11    O18       1.99214      .   S
    Zr12   O19       2.20767  1_565   S
    N4     O19       1.99038      .   S
    Zr12   O20       2.20743      .   S
    N2     O20       1.98963      .   S
    Zr21   O22       2.05358      .   S
    N3     O22       2.58289      .   S
    Zr21   O23       2.05595  1_664   S
    N4     O23       2.58410      .   S
    Zr21   O24       2.05274  1_665   S
    N10    O24       2.58208      .   S
    Zr21   O25       2.05542  1_554   S
    N2     O25       2.58357      .   S
    Zr26   O27       1.49162  1_655   S
    N1     O27       2.49778  1_655   S
    Zr26   O28       1.49018      .   S
    N8     O28       2.49808  1_455   S
    Zr26   O29       1.48742      .   S
    N10    O29       2.50772  1_455   S
    Zr26   O30       1.48848  1_655   S
    N3     O30       2.50817  1_655   S
    Zr26   O31       2.20148      .   S
    N1     O31       1.97613      .   S
    Zr26   O32       2.20469  1_655   S
    N10    O32       1.98143      .   S
    Zr26   O33       2.20521      .   S
    N3     O33       1.98162      .   S
    Zr26   O34       2.20181  1_655   S
    N8     O34       1.97489      .   S
    Zr35   O36       2.05315  1_665   S
    N0     O36       2.58316      .   S
    Zr35   O37       2.05372  1_565   S
    N5     O37       2.58162      .   S
    Zr35   O38       2.05280      .   S
    N7     O38       2.58170      .   S
    Zr35   O39       2.06132  1_655   S
    N11    O39       2.58930      .   S
    Zr40   O41       2.20501      .   S
    N0     O41       1.98075      .   S
    Zr40   O42       2.20585      .   S
    N7     O42       1.98149      .   S
    Zr40   O43       2.20239      .   S
    N6     O43       1.97910      .   S
    Zr40   O44       2.20304      .   S
    N9     O44       1.97964      .   S
    Zr40   O45       1.49349      .   S
    N6     O45       2.49973      .   S
    Zr40   O46       1.49298      .   S
    N9     O46       2.50113      .   S
    Zr40   O47       1.48840      .   S
    N7     O47       2.50778      .   S
    Zr40   O48       1.48791      .   S
    N0     O48       2.50666      .   S
    Zr49   O50       2.05328  1_655   S
    N8     O50       2.58230      .   S
    Zr49   O51       2.05780  1_565   S
    N1     O51       2.58674      .   S
    Zr49   O52       2.05621      .   S
    N9     O52       2.58487      .   S
    Zr49   O53       2.05664  1_665   S
    N6     O53       2.58548      .   S
