# CIF file generated by openbabel 2.4.90, see http://openbabel.sf.net
data_I
_chemical_name_common ''
_cell_length_a 12.416
_cell_length_b 12.439
_cell_length_c 27.049
_cell_angle_alpha 90.02
_cell_angle_beta 89.986
_cell_angle_gamma 119.911
_space_group_name_H-M_alt 'P 1'
_space_group_name_Hall 'P 1'
loop_
    _symmetry_equiv_pos_as_xyz
    x,y,z
loop_
    _atom_site_label
    _atom_site_type_symbol
    _atom_site_fract_x
    _atom_site_fract_y
    _atom_site_fract_z
    _atom_site_occupancy
    Zr0     Zr   0.00051   0.99939   0.66634   1.000
    Zr1     Zr   0.99997   0.99935   0.33345   1.000
    Zr2     Zr   0.99992   0.99923   0.00159   1.000
    Zr3     Zr   0.50035   0.99944   0.74488   1.000
    Zr4     Zr   0.49991   0.49968   0.41106   1.000
    Zr5     Zr   0.99987   0.49937   0.07904   1.000
    Zr6     Zr   0.50006   0.99950   0.92268   1.000
    Zr7     Zr   0.00010   0.49948   0.25616   1.000
    Zr8     Zr   0.50010   0.49955   0.58834   1.000
    Zr9     Zr   0.38954   0.77798   0.83374   1.000
    Zr10    Zr   0.38799   0.60985   0.49992   1.000
    Zr11    Zr   0.22218   0.60942   0.16746   1.000
    Zr12    Zr   0.61078   0.22099   0.83379   1.000
    Zr13    Zr   0.61201   0.38937   0.49981   1.000
    Zr14    Zr   0.77778   0.38946   0.16750   1.000
    Zr15    Zr   0.10133   0.88523   0.73003   1.000
    Zr16    Zr   0.78529   0.89813   0.39770   1.000
    Zr17    Zr   0.11194   0.21298   0.06509   1.000
    Zr18    Zr   0.89965   0.11425   0.73002   1.000
    Zr19    Zr   0.21470   0.10113   0.39765   1.000
    Zr20    Zr   0.88778   0.78569   0.06515   1.000
    Zr21    Zr   0.21489   0.11396   0.93709   1.000
    Zr22    Zr   0.88675   0.10089   0.26928   1.000
    Zr23    Zr   0.89879   0.78548   0.60210   1.000
    Zr24    Zr   0.78511   0.88485   0.93708   1.000
    Zr25    Zr   0.11318   0.89794   0.26925   1.000
    Zr26    Zr   0.10156   0.21325   0.60211   1.000
    Zr27    Zr   0.37754   0.78408   0.74674   1.000
    Zr28    Zr   0.40777   0.62334   0.41300   1.000
    Zr29    Zr   0.21553   0.59025   0.08054   1.000
    Zr30    Zr   0.62293   0.21478   0.74679   1.000
    Zr31    Zr   0.59213   0.37610   0.41289   1.000
    Zr32    Zr   0.78422   0.40849   0.08058   1.000
    Zr33    Zr   0.59229   0.21487   0.92070   1.000
    Zr34    Zr   0.78441   0.37619   0.25439   1.000
    Zr35    Zr   0.62465   0.40836   0.58675   1.000
    Zr36    Zr   0.40778   0.78414   0.92074   1.000
    Zr37    Zr   0.21581   0.62287   0.25436   1.000
    Zr38    Zr   0.37540   0.59061   0.58685   1.000
    Zr39    Zr   0.13278   0.98159   0.70244   1.000
    Zr40    Zr   0.99531   0.80078   0.73975   1.000
    Zr41    Zr   0.85002   0.86732   0.36953   1.000
    Zr42    Zr   0.80695   0.00000   0.40835   1.000
    Zr43    Zr   0.01552   0.14830   0.03740   1.000
    Zr44    Zr   0.19589   0.19071   0.07519   1.000
    Zr45    Zr   0.86858   0.01782   0.70250   1.000
    Zr46    Zr   0.00000   0.19905   0.73976   1.000
    Zr47    Zr   0.14998   0.13175   0.36941   1.000
    Zr48    Zr   0.19310   0.99569   0.40836   1.000
    Zr49    Zr   0.98419   0.85030   0.03746   1.000
    Zr50    Zr   0.80380   0.80794   0.07524   1.000
    Zr51    Zr   0.14985   0.01790   0.96470   1.000
    Zr52    Zr   0.19368   0.19854   0.92707   1.000
    Zr53    Zr   0.98190   0.13145   0.29760   1.000
    Zr54    Zr   0.80330   0.99546   0.25835   1.000
    Zr55    Zr   0.86761   0.85021   0.63010   1.000
    Zr56    Zr   0.00000   0.80725   0.59170   1.000
    Zr57    Zr   0.85022   0.98090   0.96477   1.000
    Zr58    Zr   0.80628   0.80025   0.92703   1.000
    Zr59    Zr   0.01800   0.86723   0.29760   1.000
    Zr60    Zr   0.19655   0.00000   0.25835   1.000
    Zr61    Zr   0.13298   0.14861   0.62990   1.000
    Zr62    Zr   0.99559   0.19119   0.59100   1.000
    O63     O    0.00772   0.07376   0.01950   1.000
    O64     O    0.99205   0.92476   0.01953   1.000
    O65     O    0.07488   0.00856   0.98315   1.000
    O66     O    0.92507   0.99006   0.98318   1.000
    O67     O    0.06373   0.18064   0.05124   1.000
    O68     O    0.93598   0.81800   0.05131   1.000
    O69     O    0.15391   0.20185   0.07014   1.000
    O70     O    0.84579   0.79681   0.07020   1.000
    O71     O    0.10770   0.54481   0.07979   1.000
    O72     O    0.89205   0.45393   0.07981   1.000
    O73     O    0.21886   0.59984   0.12400   1.000
    O74     O    0.78100   0.39897   0.12404   1.000
    O75     O    0.21900   0.61615   0.21091   1.000
    O76     O    0.78110   0.38282   0.21095   1.000
    O77     O    0.10795   0.56117   0.25526   1.000
    O78     O    0.89225   0.43783   0.25528   1.000
    O79     O    0.15487   0.94897   0.26380   1.000
    O80     O    0.84502   0.04818   0.26382   1.000
    O81     O    0.06559   0.88259   0.28342   1.000
    O82     O    0.93433   0.11617   0.28344   1.000
    O83     O    0.00899   0.93329   0.31553   1.000
    O84     O    0.99094   0.06540   0.31553   1.000
    O85     O    0.07498   0.06555   0.35143   1.000
    O86     O    0.92499   0.93334   0.35149   1.000
    O87     O    0.18234   0.11644   0.38353   1.000
    O88     O    0.81765   0.88272   0.38362   1.000
    O89     O    0.20390   0.04841   0.40301   1.000
    O90     O    0.79612   0.94906   0.40302   1.000
    O91     O    0.54602   0.43789   0.41198   1.000
    O92     O    0.45384   0.56151   0.41203   1.000
    O93     O    0.60207   0.38274   0.45635   1.000
    O94     O    0.39788   0.61660   0.45646   1.000
    O95     O    0.61833   0.39886   0.54328   1.000
    O96     O    0.38170   0.60023   0.54339   1.000
    O97     O    0.56238   0.45395   0.58754   1.000
    O98     O    0.43775   0.54508   0.58759   1.000
    O99     O    0.04857   0.20222   0.59656   1.000
    O100    O    0.94939   0.79637   0.59690   1.000
    O101    O    0.88320   0.81785   0.61610   1.000
    O102    O    0.11727   0.18093   0.61601   1.000
    O103    O    0.06674   0.07400   0.64812   1.000
    O104    O    0.93406   0.92480   0.64822   1.000
    O105    O    0.06664   0.99049   0.68439   1.000
    O106    O    0.93454   0.00861   0.68442   1.000
    O107    O    0.11705   0.93341   0.71624   1.000
    O108    O    0.88412   0.06604   0.71626   1.000
    O109    O    0.94982   0.15665   0.73489   1.000
    O110    O    0.04832   0.84301   0.73489   1.000
    O111    O    0.43895   0.89176   0.74581   1.000
    O112    O    0.56164   0.10711   0.74584   1.000
    O113    O    0.38354   0.78103   0.79024   1.000
    O114    O    0.61685   0.21789   0.79029   1.000
    O115    O    0.39866   0.78106   0.87724   1.000
    O116    O    0.60154   0.21793   0.87725   1.000
    O117    O    0.54618   0.10719   0.92169   1.000
    O118    O    0.45392   0.89182   0.92171   1.000
    O119    O    0.79569   0.84255   0.93206   1.000
    O120    O    0.20429   0.15625   0.93208   1.000
    O121    O    0.81766   0.93288   0.95093   1.000
    O122    O    0.18237   0.06593   0.95090   1.000
    N123    N    0.20875   0.33657   0.56134   1.000
    O124    O    0.18350   0.30510   0.57654   1.000
    O125    O    0.23618   0.48960   0.61144   1.000
    O126    O    0.37296   0.35470   0.59003   1.000
    N127    N    0.87190   0.20908   0.22862   1.000
    O128    O    0.87765   0.18347   0.24380   1.000
    O129    O    0.74492   0.23601   0.27821   1.000
    O130    O    0.01726   0.37192   0.25803   1.000
    N131    N    0.66270   0.87002   0.89594   1.000
    O132    O    0.69382   0.87582   0.91123   1.000
    O133    O    0.50786   0.74428   0.94526   1.000
    O134    O    0.64475   0.01601   0.92469   1.000
    N135    N    0.87164   0.66267   0.10604   1.000
    O136    O    0.87783   0.69402   0.09082   1.000
    O137    O    0.74580   0.50955   0.05613   1.000
    O138    O    0.01755   0.64420   0.07724   1.000
    N139    N    0.33736   0.12891   0.89594   1.000
    O140    O    0.30622   0.12307   0.91123   1.000
    O141    O    0.35536   0.98293   0.92463   1.000
    O142    O    0.49208   0.25463   0.94529   1.000
    N143    N    0.79245   0.12918   0.77136   1.000
    O144    O    0.81763   0.12334   0.75602   1.000
    O145    O    0.76267   0.25469   0.72212   1.000
    O146    O    0.62853   0.98299   0.74278   1.000
    N147    N    0.33740   0.20914   0.43846   1.000
    O148    O    0.30616   0.18359   0.42325   1.000
    O149    O    0.35519   0.37224   0.40911   1.000
    O150    O    0.49153   0.23599   0.38899   1.000
    N151    N    0.79145   0.66238   0.56137   1.000
    O152    O    0.81674   0.69378   0.57655   1.000
    O153    O    0.76390   0.50923   0.61135   1.000
    O154    O    0.62732   0.64438   0.59008   1.000
    N155    N    0.12822   0.78986   0.22857   1.000
    O156    O    0.12242   0.81545   0.24375   1.000
    O157    O    0.25520   0.76310   0.27818   1.000
    O158    O    0.98287   0.62699   0.25796   1.000
    N159    N    0.66257   0.79027   0.43854   1.000
    O160    O    0.69381   0.81577   0.42332   1.000
    O161    O    0.64463   0.62708   0.40915   1.000
    O162    O    0.50840   0.76346   0.38913   1.000
    N163    N    0.12815   0.33611   0.10597   1.000
    O164    O    0.12193   0.30473   0.09075   1.000
    O165    O    0.25395   0.48919   0.05606   1.000
    O166    O    0.98221   0.35453   0.07731   1.000
    N167    N    0.20818   0.86993   0.77141   1.000
    O168    O    0.18311   0.87588   0.75606   1.000
    O169    O    0.23780   0.74438   0.72206   1.000
    O170    O    0.37231   0.01605   0.74293   1.000
loop_
    _geom_bond_atom_site_label_1
    _geom_bond_atom_site_label_2
    _geom_bond_distance
    _geom_bond_site_symmetry_2
    _ccdc_geom_bond_type
    Zr2    O63       1.00687  1_665   S
    Zr43   O63       1.00687      .   S
    Zr2    O64       1.00642      .   S
    Zr49   O64       1.00642      .   S
    Zr2    O65       1.01031  1_664   S
    Zr51   O65       1.01031      .   S
    Zr2    O66       1.00953  1_554   S
    Zr57   O66       1.00953      .   S
    Zr43   O67       0.64825      .   S
    Zr17   O67       0.64825      .   S
    Zr49   O68       0.64813      .   S
    Zr20   O68       0.64813      .   S
    Zr17   O69       0.61765      .   S
    Zr44   O69       0.61765      .   S
    Zr20   O70       0.61759      .   S
    Zr50   O70       0.61759      .   S
    Zr5    O71       1.16514  1_655   S
    Zr29   O71       1.16514      .   S
    Zr5    O72       1.16511      .   S
    Zr32   O72       1.16511      .   S
    Zr29   O73       1.18019      .   S
    Zr11   O73       1.18019      .   S
    Zr32   O74       1.18020      .   S
    Zr14   O74       1.18020      .   S
    Zr11   O75       1.18028      .   S
    Zr37   O75       1.18028      .   S
    Zr14   O76       1.18023      .   S
    Zr34   O76       1.18023      .   S
    Zr37   O77       1.16527      .   S
    Zr7    O77       1.16527      .   S
    Zr34   O78       1.16512      .   S
    Zr7    O78       1.16512  1_455   S
    Zr60   O79       0.60407  1_545   S
    Zr25   O79       0.60407      .   S
    Zr54   O80       0.61756  1_565   S
    Zr22   O80       0.61756      .   S
    Zr25   O81       0.64810      .   S
    Zr59   O81       0.64810      .   S
    Zr22   O82       0.64795      .   S
    Zr53   O82       0.64795      .   S
    Zr59   O83       1.00710      .   S
    Zr1    O83       1.00710  1_655   S
    Zr53   O84       1.00741      .   S
    Zr1    O84       1.00741  1_565   S
    Zr1    O85       1.00845  1_665   S
    Zr47   O85       1.00845      .   S
    Zr1    O86       1.00833      .   S
    Zr41   O86       1.00833      .   S
    Zr47   O87       0.64806      .   S
    Zr19   O87       0.64806      .   S
    Zr41   O88       0.64805      .   S
    Zr16   O88       0.64805      .   S
    Zr19   O89       0.61760      .   S
    Zr48   O89       0.61760  1_565   S
    Zr16   O90       0.59603      .   S
    Zr42   O90       0.59603  1_545   S
    Zr4    O91       1.16531      .   S
    Zr31   O91       1.16531      .   S
    Zr4    O92       1.16535      .   S
    Zr28   O92       1.16535      .   S
    Zr31   O93       1.18060      .   S
    Zr13   O93       1.18060      .   S
    Zr28   O94       1.18057      .   S
    Zr10   O94       1.18057      .   S
    Zr13   O95       1.18041      .   S
    Zr35   O95       1.18041      .   S
    Zr10   O96       1.18042      .   S
    Zr38   O96       1.18042      .   S
    Zr35   O97       1.16508      .   S
    Zr8    O97       1.16508      .   S
    Zr38   O98       1.16518      .   S
    Zr8    O98       1.16518      .   S
    Zr62   O99       0.61984  1_655   S
    Zr26   O99       0.61984      .   S
    Zr56   O100      0.58995  1_455   S
    Zr23   O100      0.58995      .   S
    Zr23   O101      0.64847      .   S
    Zr55   O101      0.64847      .   S
    Zr26   O102      0.64752      .   S
    Zr61   O102      0.64752      .   S
    Zr61   O103      1.00968      .   S
    Zr0    O103      1.00968  1_565   S
    Zr55   O104      1.00906      .   S
    Zr0    O104      1.00906  1_455   S
    Zr0    O105      1.00788      .   S
    Zr39   O105      1.00788      .   S
    Zr0    O106      1.00819  1_465   S
    Zr45   O106      1.00819      .   S
    Zr39   O107      0.64801      .   S
    Zr15   O107      0.64801      .   S
    Zr45   O108      0.64802      .   S
    Zr18   O108      0.64802      .   S
    Zr18   O109      0.59660      .   S
    Zr46   O109      0.59660  1_455   S
    Zr15   O110      0.61771      .   S
    Zr40   O110      0.61771  1_655   S
    Zr3    O111      1.16516      .   S
    Zr27   O111      1.16516      .   S
    Zr3    O112      1.16493  1_565   S
    Zr30   O112      1.16493      .   S
    Zr27   O113      1.18082      .   S
    Zr9    O113      1.18082      .   S
    Zr30   O114      1.18088      .   S
    Zr12   O114      1.18088      .   S
    Zr9    O115      1.18087      .   S
    Zr36   O115      1.18087      .   S
    Zr12   O116      1.17976      .   S
    Zr33   O116      1.17976      .   S
    Zr33   O117      1.16527      .   S
    Zr6    O117      1.16527  1_565   S
    Zr36   O118      1.16521      .   S
    Zr6    O118      1.16521      .   S
    Zr58   O119      0.61771      .   S
    Zr24   O119      0.61771      .   S
    Zr52   O120      0.61771      .   S
    Zr21   O120      0.61771      .   S
    Zr24   O121      0.64777      .   S
    Zr57   O121      0.64777      .   S
    Zr21   O122      0.64725      .   S
    Zr51   O122      0.64725      .   S
    N123   O124      0.54614      .   S
    Zr26   O124      1.28840      .   S
    N123   O125      2.22001      .   S
    Zr38   O125      1.68619      .   S
    N123   O126      2.08614      .   S
    Zr8    O126      1.70404      .   S
    N127   O128      0.54576      .   S
    Zr22   O128      1.28814      .   S
    N127   O129      2.21848      .   S
    Zr34   O129      1.68637      .   S
    N127   O130      2.08473  1_655   S
    Zr7    O130      1.70380      .   S
    N131   O132      0.54561      .   S
    Zr24   O132      1.28829      .   S
    N131   O133      2.21888      .   S
    Zr36   O133      1.68658      .   S
    N131   O134      2.08679  1_565   S
    Zr6    O134      1.70421  1_565   S
    N135   O136      0.54557      .   S
    Zr20   O136      1.28745      .   S
    N135   O137      2.21862      .   S
    Zr32   O137      1.68638      .   S
    N135   O138      2.08703  1_655   S
    Zr5    O138      1.70356  1_655   S
    N139   O140      0.54560      .   S
    Zr21   O140      1.28830      .   S
    N139   O141      2.08700  1_545   S
    Zr6    O141      1.70399      .   S
    N139   O142      2.21856      .   S
    Zr33   O142      1.68761      .   S
    N143   O144      0.54552      .   S
    Zr18   O144      1.28797      .   S
    N143   O145      2.21935      .   S
    Zr30   O145      1.68604      .   S
    N143   O146      2.08696  1_545   S
    Zr3    O146      1.70375      .   S
    N147   O148      0.54569      .   S
    Zr19   O148      1.28805      .   S
    N147   O149      2.08546      .   S
    Zr4    O149      1.70398      .   S
    N147   O150      2.21934      .   S
    Zr31   O150      1.68646      .   S
    N151   O152      0.54541      .   S
    Zr23   O152      1.28733      .   S
    N151   O153      2.21932      .   S
    Zr35   O153      1.68598      .   S
    N151   O154      2.08562      .   S
    Zr8    O154      1.70434      .   S
    N155   O156      0.54569      .   S
    Zr25   O156      1.28793      .   S
    N155   O157      2.21851      .   S
    Zr37   O157      1.68679      .   S
    N155   O158      2.08507  1_455   S
    Zr7    O158      1.70356  1_455   S
    N159   O160      0.54572      .   S
    Zr16   O160      1.28816      .   S
    N159   O161      2.08570      .   S
    Zr4    O161      1.70378      .   S
    N159   O162      2.21937      .   S
    Zr28   O162      1.68653      .   S
    N163   O164      0.54557      .   S
    Zr17   O164      1.28749      .   S
    N163   O165      2.21868      .   S
    Zr29   O165      1.68639      .   S
    N163   O166      2.08596  1_455   S
    Zr5    O166      1.70353      .   S
    N167   O168      0.54559      .   S
    Zr15   O168      1.28785      .   S
    N167   O169      2.21969      .   S
    Zr27   O169      1.68682      .   S
    N167   O170      2.08707  1_565   S
    Zr3    O170      1.70312  1_565   S
