# CIF file generated by openbabel 2.4.90, see http://openbabel.sf.net
data_I
_chemical_name_common ''
_cell_length_a 12.416
_cell_length_b 12.439
_cell_length_c 27.049
_cell_angle_alpha 90.02
_cell_angle_beta 89.986
_cell_angle_gamma 119.911
_space_group_name_H-M_alt 'P 1'
_space_group_name_Hall 'P 1'
loop_
    _symmetry_equiv_pos_as_xyz
    x,y,z
loop_
    _atom_site_label
    _atom_site_type_symbol
    _atom_site_fract_x
    _atom_site_fract_y
    _atom_site_fract_z
    _atom_site_occupancy
    C0      C    0.00051   0.99939   0.66634   1.000
    C1      C    0.99997   0.99935   0.33345   1.000
    C2      C    0.99992   0.99923   0.00159   1.000
    C3      C    0.33458   0.06118   0.77006   1.000
    C4      C    0.31836   0.03493   0.71092   1.000
    C5      C    0.20160   0.86144   0.79141   1.000
    C6      C    0.12164   0.63898   0.78571   1.000
    C7      C    0.13403   0.57118   0.72900   1.000
    C8      C    0.03222   0.63397   0.73363   1.000
    C9      C    0.24609   0.70978   0.65478   1.000
    C10     C    0.30799   0.87167   0.65864   1.000
    C11     C    0.14432   0.77251   0.65648   1.000
    C12     C    0.72772   0.66375   0.43609   1.000
    C13     C    0.71719   0.68144   0.37711   1.000
    C14     C    0.66034   0.79610   0.45857   1.000
    C15     C    0.51837   0.87762   0.45339   1.000
    C16     C    0.43918   0.86761   0.39735   1.000
    C17     C    0.60370   0.96831   0.40179   1.000
    C18     C    0.46684   0.75809   0.32180   1.000
    C19     C    0.56605   0.69482   0.32524   1.000
    C20     C    0.63129   0.85840   0.32400   1.000
    C21     C    0.93662   0.27231   0.10457   1.000
    C22     C    0.96280   0.28122   0.04543   1.000
    C23     C    0.13682   0.33853   0.12596   1.000
    C24     C    0.36036   0.47913   0.11950   1.000
    C25     C    0.42744   0.55727   0.06309   1.000
    C26     C    0.36352   0.39300   0.06773   1.000
    C27     C    0.28800   0.53017   0.98861   1.000
    C28     C    0.12559   0.43241   0.99298   1.000
    C29     C    0.22308   0.36581   0.99073   1.000
    C30     C    0.66641   0.93784   0.76985   1.000
    C31     C    0.68253   0.96431   0.71074   1.000
    C32     C    0.79895   0.13762   0.79136   1.000
    C33     C    0.87879   0.36017   0.78573   1.000
    C34     C    0.86612   0.42788   0.72976   1.000
    C35     C    0.96823   0.36542   0.73360   1.000
    C36     C    0.75444   0.28937   0.65482   1.000
    C37     C    0.69247   0.12747   0.65863   1.000
    C38     C    0.85616   0.22658   0.65644   1.000
    C39     C    0.27206   0.33552   0.43605   1.000
    C40     C    0.28268   0.31787   0.37706   1.000
    C41     C    0.33968   0.20333   0.45849   1.000
    C42     C    0.48165   0.12180   0.45319   1.000
    C43     C    0.56078   0.13186   0.39711   1.000
    C44     C    0.39628   0.03114   0.40158   1.000
    C45     C    0.53305   0.24144   0.32165   1.000
    C46     C    0.43381   0.30468   0.32517   1.000
    C47     C    0.36859   0.14110   0.32385   1.000
    C48     C    0.06317   0.72645   0.10400   1.000
    C49     C    0.03693   0.71747   0.04546   1.000
    C50     C    0.86298   0.66029   0.12603   1.000
    C51     C    0.63945   0.51971   0.11961   1.000
    C52     C    0.57231   0.44148   0.06321   1.000
    C53     C    0.63625   0.60576   0.06784   1.000
    C54     C    0.71178   0.46850   0.98868   1.000
    C55     C    0.87417   0.56634   0.99303   1.000
    C56     C    0.77660   0.63284   0.99083   1.000
    C57     C    0.27250   0.93760   0.89755   1.000
    C58     C    0.28255   0.96433   0.95664   1.000
    C59     C    0.33942   0.13731   0.87593   1.000
    C60     C    0.48139   0.36000   0.88164   1.000
    C61     C    0.56142   0.42780   0.93767   1.000
    C62     C    0.39688   0.36502   0.93369   1.000
    C63     C    0.53441   0.28968   0.01262   1.000
    C64     C    0.43529   0.12765   0.00879   1.000
    C65     C    0.36986   0.22609   0.01081   1.000
    C66     C    0.06361   0.33517   0.23109   1.000
    C67     C    0.03531   0.31734   0.29007   1.000
    C68     C    0.86377   0.20337   0.20859   1.000
    C69     C    0.64046   0.12203   0.21403   1.000
    C70     C    0.57155   0.13190   0.27018   1.000
    C71     C    0.63530   0.03112   0.26550   1.000
    C72     C    0.70912   0.24157   0.34560   1.000
    C73     C    0.87148   0.30453   0.34200   1.000
    C74     C    0.77307   0.14100   0.34332   1.000
    C75     C    0.66397   0.72663   0.56284   1.000
    C76     C    0.68127   0.71764   0.62198   1.000
    C77     C    0.79760   0.65987   0.54137   1.000
    C78     C    0.88075   0.51901   0.54806   1.000
    C79     C    0.86896   0.44071   0.60451   1.000
    C80     C    0.96962   0.60491   0.59992   1.000
    C81     C    0.75633   0.46826   0.67880   1.000
    C82     C    0.69202   0.56634   0.67429   1.000
    C83     C    0.85601   0.63257   0.67670   1.000
    C84     C    0.72773   0.06137   0.89766   1.000
    C85     C    0.71743   0.03450   0.95674   1.000
    C86     C    0.66065   0.86165   0.87593   1.000
    C87     C    0.51860   0.63898   0.88154   1.000
    C88     C    0.43839   0.57112   0.93753   1.000
    C89     C    0.60292   0.63374   0.93360   1.000
    C90     C    0.46534   0.70917   0.01255   1.000
    C91     C    0.56457   0.87119   0.00880   1.000
    C92     C    0.62989   0.77265   0.01078   1.000
    C93     C    0.93656   0.66361   0.23090   1.000
    C94     C    0.96471   0.68163   0.28996   1.000
    C95     C    0.13638   0.79559   0.20854   1.000
    C96     C    0.35964   0.87700   0.21397   1.000
    C97     C    0.42858   0.86731   0.27012   1.000
    C98     C    0.36470   0.96797   0.26546   1.000
    C99     C    0.29099   0.75773   0.34550   1.000
    C100    C    0.12862   0.69471   0.34197   1.000
    C101    C    0.22700   0.85824   0.34325   1.000
    C102    C    0.33639   0.27252   0.56274   1.000
    C103    C    0.31906   0.28136   0.62190   1.000
    C104    C    0.20259   0.33911   0.54130   1.000
    C105    C    0.11924   0.47981   0.54820   1.000
    C106    C    0.13091   0.55790   0.60472   1.000
    C107    C    0.03043   0.39369   0.60000   1.000
    C108    C    0.24374   0.53052   0.67894   1.000
    C109    C    0.30820   0.43258   0.67430   1.000
    C110    C    0.14420   0.36619   0.67677   1.000
    C111    C    0.50035   0.99944   0.74488   1.000
    C112    C    0.49991   0.49968   0.41106   1.000
    C113    C    0.99987   0.49937   0.07904   1.000
    C114    C    0.50006   0.99950   0.92268   1.000
    C115    C    0.00010   0.49948   0.25616   1.000
    C116    C    0.50010   0.49955   0.58834   1.000
    C117    C    0.38954   0.77798   0.83374   1.000
    C118    C    0.38799   0.60985   0.49992   1.000
    C119    C    0.22218   0.60942   0.16746   1.000
    C120    C    0.61078   0.22099   0.83379   1.000
    C121    C    0.61201   0.38937   0.49981   1.000
    C122    C    0.77778   0.38946   0.16750   1.000
    C123    C    0.22580   0.77170   0.72767   1.000
    C124    C    0.21476   0.87841   0.75140   1.000
    C125    C    0.12215   0.64601   0.74523   1.000
    C126    C    0.23124   0.78201   0.67113   1.000
    C127    C    0.10133   0.88523   0.73003   1.000
    C128    C    0.54759   0.77501   0.39476   1.000
    C129    C    0.66480   0.78443   0.41850   1.000
    C130    C    0.52553   0.87838   0.41291   1.000
    C131    C    0.55342   0.77149   0.33820   1.000
    C132    C    0.78529   0.89813   0.39770   1.000
    C133    C    0.22650   0.45015   0.06176   1.000
    C134    C    0.11948   0.33370   0.08597   1.000
    C135    C    0.35240   0.47152   0.07905   1.000
    C136    C    0.21512   0.44412   0.00520   1.000
    C137    C    0.11194   0.21298   0.06509   1.000
    C138    C    0.77475   0.22740   0.72767   1.000
    C139    C    0.78596   0.12074   0.75135   1.000
    C140    C    0.87824   0.35317   0.74524   1.000
    C141    C    0.76925   0.21711   0.67113   1.000
    C142    C    0.89965   0.11425   0.73002   1.000
    C143    C    0.45234   0.22443   0.39462   1.000
    C144    C    0.33513   0.21494   0.41842   1.000
    C145    C    0.47445   0.12106   0.41270   1.000
    C146    C    0.44646   0.22800   0.33807   1.000
    C147    C    0.21470   0.10113   0.39765   1.000
    C148    C    0.77325   0.54858   0.06183   1.000
    C149    C    0.88029   0.66505   0.08604   1.000
    C150    C    0.64737   0.52725   0.07916   1.000
    C151    C    0.78461   0.55458   0.00533   1.000
    C152    C    0.88778   0.78569   0.06515   1.000
    C153    C    0.45281   0.22729   0.93972   1.000
    C154    C    0.33529   0.12050   0.91594   1.000
    C155    C    0.47480   0.35296   0.92212   1.000
    C156    C    0.44768   0.21707   0.99626   1.000
    C157    C    0.21489   0.11396   0.93709   1.000
    C158    C    0.77249   0.22439   0.27250   1.000
    C159    C    0.88003   0.21480   0.24866   1.000
    C160    C    0.64703   0.12112   0.25450   1.000
    C161    C    0.78210   0.22793   0.32910   1.000
    C162    C    0.88675   0.10089   0.26928   1.000
    C163    C    0.77558   0.54832   0.60563   1.000
    C164    C    0.78529   0.66489   0.58137   1.000
    C165    C    0.88004   0.52659   0.58850   1.000
    C166    C    0.76980   0.55438   0.66212   1.000
    C167    C    0.89879   0.78548   0.60210   1.000
    C168    C    0.54717   0.77161   0.93968   1.000
    C169    C    0.66476   0.87840   0.91595   1.000
    C170    C    0.52509   0.64593   0.92203   1.000
    C171    C    0.55217   0.78175   0.99623   1.000
    C172    C    0.78511   0.88485   0.93708   1.000
    C173    C    0.22763   0.77467   0.27250   1.000
    C174    C    0.12005   0.78413   0.24860   1.000
    C175    C    0.35305   0.87798   0.25444   1.000
    C176    C    0.21799   0.77128   0.32908   1.000
    C177    C    0.11318   0.89794   0.26925   1.000
    C178    C    0.22452   0.45051   0.60570   1.000
    C179    C    0.21492   0.33403   0.58137   1.000
    C180    C    0.11996   0.47212   0.58864   1.000
    C181    C    0.23035   0.44444   0.66219   1.000
    C182    C    0.10156   0.21325   0.60211   1.000
    C183    C    0.37754   0.78408   0.74674   1.000
    C184    C    0.40777   0.62334   0.41300   1.000
    C185    C    0.21553   0.59025   0.08054   1.000
    C186    C    0.62293   0.21478   0.74679   1.000
    C187    C    0.59213   0.37610   0.41289   1.000
    C188    C    0.78422   0.40849   0.08058   1.000
    C189    C    0.59229   0.21487   0.92070   1.000
    C190    C    0.78441   0.37619   0.25439   1.000
    C191    C    0.62465   0.40836   0.58675   1.000
    C192    C    0.40778   0.78414   0.92074   1.000
    C193    C    0.21581   0.62287   0.25436   1.000
    C194    C    0.37540   0.59061   0.58685   1.000
    C195    C    0.33215   0.00042   0.74372   1.000
    C196    C    0.66921   0.66710   0.41004   1.000
    C197    C    0.99761   0.32983   0.07813   1.000
    C198    C    0.66869   0.99864   0.74350   1.000
    C199    C    0.33062   0.33222   0.40999   1.000
    C200    C    0.00215   0.66890   0.07817   1.000
    C201    C    0.33081   0.99855   0.92382   1.000
    C202    C    0.00180   0.33191   0.25710   1.000
    C203    C    0.66743   0.66907   0.58926   1.000
    C204    C    0.66929   0.00038   0.92388   1.000
    C205    C    0.99832   0.66698   0.25707   1.000
    C206    C    0.33287   0.33000   0.58921   1.000
    C207    C    0.13278   0.98159   0.70244   1.000
    C208    C    0.99531   0.80078   0.73975   1.000
    C209    C    0.85002   0.86732   0.36953   1.000
    C210    C    0.80695   0.00000   0.40835   1.000
    C211    C    0.01552   0.14830   0.03740   1.000
    C212    C    0.19589   0.19071   0.07519   1.000
    C213    C    0.86858   0.01782   0.70250   1.000
    C214    C    0.00000   0.19905   0.73976   1.000
    C215    C    0.14998   0.13175   0.36941   1.000
    C216    C    0.19310   0.99569   0.40836   1.000
    C217    C    0.98419   0.85030   0.03746   1.000
    C218    C    0.80380   0.80794   0.07524   1.000
    C219    C    0.14985   0.01790   0.96470   1.000
    C220    C    0.19368   0.19854   0.92707   1.000
    C221    C    0.98190   0.13145   0.29760   1.000
    C222    C    0.80330   0.99546   0.25835   1.000
    C223    C    0.86761   0.85021   0.63010   1.000
    C224    C    0.00000   0.80725   0.59170   1.000
    C225    C    0.85022   0.98090   0.96477   1.000
    C226    C    0.80628   0.80025   0.92703   1.000
    C227    C    0.01800   0.86723   0.29760   1.000
    C228    C    0.19655   0.00000   0.25835   1.000
    C229    C    0.13298   0.14861   0.62990   1.000
    C230    C    0.99559   0.19119   0.59100   1.000
    O231    O    0.00772   0.07376   0.01950   1.000
    O232    O    0.99205   0.92476   0.01953   1.000
    O233    O    0.07488   0.00856   0.98315   1.000
    O234    O    0.92507   0.99006   0.98318   1.000
    O235    O    0.22081   0.44714   0.03348   1.000
    O236    O    0.25156   0.48715   0.99691   1.000
    O237    O    0.21910   0.40497   0.99797   1.000
    O238    O    0.17035   0.43827   0.99909   1.000
    O239    O    0.77893   0.55158   0.03358   1.000
    O240    O    0.74819   0.51154   0.99701   1.000
    O241    O    0.78061   0.59371   0.99808   1.000
    O242    O    0.82939   0.56046   0.99918   1.000
    O243    O    0.44149   0.17236   0.00253   1.000
    O244    O    0.55837   0.82647   0.00252   1.000
    O245    O    0.59103   0.77720   0.00351   1.000
    O246    O    0.40877   0.22158   0.00354   1.000
    O247    O    0.50876   0.74546   0.00439   1.000
    O248    O    0.49105   0.25338   0.00444   1.000
    O249    O    0.06373   0.18064   0.05124   1.000
    O250    O    0.93598   0.81800   0.05131   1.000
    O251    O    0.98021   0.30553   0.06178   1.000
    O252    O    0.01954   0.69318   0.06182   1.000
    O253    O    0.28945   0.46083   0.07041   1.000
    O254    O    0.22101   0.52020   0.07115   1.000
    O255    O    0.17299   0.39192   0.07387   1.000
    O256    O    0.71031   0.53792   0.07050   1.000
    O257    O    0.77874   0.47853   0.07121   1.000
    O258    O    0.82677   0.60681   0.07394   1.000
    O259    O    0.38992   0.51440   0.07107   1.000
    O260    O    0.60984   0.48437   0.07118   1.000
    O261    O    0.15391   0.20185   0.07014   1.000
    O262    O    0.11571   0.27334   0.07553   1.000
    O263    O    0.84579   0.79681   0.07020   1.000
    O264    O    0.88403   0.72537   0.07560   1.000
    O265    O    0.35796   0.43226   0.07339   1.000
    O266    O    0.64181   0.56651   0.07350   1.000
    O267    O    0.99874   0.41460   0.07859   1.000
    O268    O    0.05854   0.33177   0.08205   1.000
    O269    O    0.96711   0.30107   0.09135   1.000
    O270    O    0.00101   0.58413   0.07861   1.000
    O271    O    0.94122   0.66697   0.08211   1.000
    O272    O    0.03266   0.69767   0.09108   1.000
    O273    O    0.10770   0.54481   0.07979   1.000
    O274    O    0.89205   0.45393   0.07981   1.000
    O275    O    0.35638   0.47532   0.09928   1.000
    O276    O    0.64341   0.52348   0.09939   1.000
    O277    O    0.21886   0.59984   0.12400   1.000
    O278    O    0.78100   0.39897   0.12404   1.000
    O279    O    0.12815   0.33611   0.10597   1.000
    O280    O    0.87164   0.66267   0.10604   1.000
    O281    O    0.21900   0.61615   0.21091   1.000
    O282    O    0.78110   0.38282   0.21095   1.000
    O283    O    0.12822   0.78986   0.22857   1.000
    O284    O    0.87190   0.20908   0.22862   1.000
    O285    O    0.35634   0.87749   0.23420   1.000
    O286    O    0.64375   0.12157   0.23427   1.000
    O287    O    0.96744   0.66530   0.24398   1.000
    O288    O    0.03271   0.33354   0.24410   1.000
    O289    O    0.05919   0.72556   0.25284   1.000
    O290    O    0.11662   0.84103   0.25893   1.000
    O291    O    0.17384   0.77940   0.26055   1.000
    O292    O    0.94092   0.27336   0.25288   1.000
    O293    O    0.88339   0.15785   0.25897   1.000
    O294    O    0.82626   0.21960   0.26058   1.000
    O295    O    0.10795   0.56117   0.25526   1.000
    O296    O    0.22172   0.69877   0.26343   1.000
    O297    O    0.89225   0.43783   0.25528   1.000
    O298    O    0.77845   0.30029   0.26345   1.000
    O299    O    0.35887   0.92297   0.25995   1.000
    O300    O    0.39082   0.87264   0.26228   1.000
    O301    O    0.29034   0.82632   0.26347   1.000
    O302    O    0.64117   0.07612   0.26000   1.000
    O303    O    0.60929   0.12651   0.26234   1.000
    O304    O    0.70976   0.17276   0.26350   1.000
    O305    O    0.99921   0.58323   0.25662   1.000
    O306    O    0.00095   0.41570   0.25663   1.000
    O307    O    0.98151   0.67430   0.27352   1.000
    O308    O    0.01856   0.32463   0.27359   1.000
    O309    O    0.15487   0.94897   0.26380   1.000
    O310    O    0.84502   0.04818   0.26382   1.000
    O311    O    0.06559   0.88259   0.28342   1.000
    O312    O    0.93433   0.11617   0.28344   1.000
    O313    O    0.77730   0.22616   0.30080   1.000
    O314    O    0.22281   0.77297   0.30079   1.000
    O315    O    0.00899   0.93329   0.31553   1.000
    O316    O    0.99094   0.06540   0.31553   1.000
    O317    O    0.48975   0.23472   0.32986   1.000
    O318    O    0.51013   0.76479   0.33000   1.000
    O319    O    0.40753   0.18455   0.33096   1.000
    O320    O    0.59236   0.81495   0.33110   1.000
    O321    O    0.44014   0.26634   0.33162   1.000
    O322    O    0.55974   0.73316   0.33172   1.000
    O323    O    0.17331   0.73300   0.33553   1.000
    O324    O    0.22250   0.81476   0.33617   1.000
    O325    O    0.25449   0.76450   0.33729   1.000
    O326    O    0.82679   0.26623   0.33555   1.000
    O327    O    0.77758   0.18446   0.33621   1.000
    O328    O    0.74561   0.23475   0.33735   1.000
    O329    O    0.07498   0.06555   0.35143   1.000
    O330    O    0.92499   0.93334   0.35149   1.000
    O331    O    0.44940   0.22621   0.36635   1.000
    O332    O    0.55051   0.77325   0.36648   1.000
    O333    O    0.18234   0.11644   0.38353   1.000
    O334    O    0.81765   0.88272   0.38362   1.000
    O335    O    0.30665   0.32504   0.39353   1.000
    O336    O    0.69320   0.67427   0.39358   1.000
    O337    O    0.46339   0.17275   0.40366   1.000
    O338    O    0.52223   0.30026   0.40376   1.000
    O339    O    0.39374   0.21968   0.40652   1.000
    O340    O    0.53656   0.82670   0.40383   1.000
    O341    O    0.47768   0.69917   0.40388   1.000
    O342    O    0.60620   0.77972   0.40663   1.000
    O343    O    0.51762   0.12646   0.40491   1.000
    O344    O    0.48235   0.87299   0.40513   1.000
    O345    O    0.20390   0.04841   0.40301   1.000
    O346    O    0.27492   0.15804   0.40804   1.000
    O347    O    0.79612   0.94906   0.40302   1.000
    O348    O    0.72505   0.84128   0.40810   1.000
    O349    O    0.43536   0.07610   0.40714   1.000
    O350    O    0.56461   0.92334   0.40735   1.000
    O351    O    0.41526   0.41595   0.41053   1.000
    O352    O    0.33288   0.27358   0.41421   1.000
    O353    O    0.30134   0.33387   0.42302   1.000
    O354    O    0.58456   0.58339   0.41055   1.000
    O355    O    0.66701   0.72577   0.41427   1.000
    O356    O    0.69847   0.66542   0.42306   1.000
    O357    O    0.54602   0.43789   0.41198   1.000
    O358    O    0.45384   0.56151   0.41203   1.000
    O359    O    0.47805   0.12143   0.43295   1.000
    O360    O    0.60207   0.38274   0.45635   1.000
    O361    O    0.52195   0.87800   0.43315   1.000
    O362    O    0.39788   0.61660   0.45646   1.000
    O363    O    0.33740   0.20914   0.43846   1.000
    O364    O    0.66257   0.79027   0.43854   1.000
    O365    O    0.61833   0.39886   0.54328   1.000
    O366    O    0.38170   0.60023   0.54339   1.000
    O367    O    0.20875   0.33657   0.56134   1.000
    O368    O    0.79145   0.66238   0.56137   1.000
    O369    O    0.88040   0.52280   0.56828   1.000
    O370    O    0.11960   0.47597   0.56842   1.000
    O371    O    0.33463   0.30126   0.57598   1.000
    O372    O    0.66570   0.69785   0.57605   1.000
    O373    O    0.72636   0.66698   0.58532   1.000
    O374    O    0.84204   0.72519   0.59174   1.000
    O375    O    0.78043   0.60660   0.59350   1.000
    O376    O    0.27389   0.33202   0.58529   1.000
    O377    O    0.15824   0.27364   0.59174   1.000
    O378    O    0.21972   0.39227   0.59354   1.000
    O379    O    0.56238   0.45395   0.58754   1.000
    O380    O    0.70012   0.47834   0.59619   1.000
    O381    O    0.43775   0.54508   0.58759   1.000
    O382    O    0.29996   0.52056   0.59627   1.000
    O383    O    0.41648   0.41478   0.58878   1.000
    O384    O    0.58376   0.58431   0.58880   1.000
    O385    O    0.92483   0.56575   0.59421   1.000
    O386    O    0.87450   0.48365   0.59650   1.000
    O387    O    0.82781   0.53745   0.59706   1.000
    O388    O    0.07519   0.43291   0.59432   1.000
    O389    O    0.12543   0.51501   0.59668   1.000
    O390    O    0.17224   0.46132   0.59717   1.000
    O391    O    0.32596   0.30568   0.60556   1.000
    O392    O    0.67435   0.69335   0.60562   1.000
    O393    O    0.04857   0.20222   0.59656   1.000
    O394    O    0.94939   0.79637   0.59690   1.000
    O395    O    0.88320   0.81785   0.61610   1.000
    O396    O    0.11727   0.18093   0.61601   1.000
    O397    O    0.77269   0.55135   0.63388   1.000
    O398    O    0.22743   0.44748   0.63394   1.000
    O399    O    0.06674   0.07400   0.64812   1.000
    O400    O    0.93406   0.92480   0.64822   1.000
    O401    O    0.23867   0.74590   0.66295   1.000
    O402    O    0.76185   0.25324   0.66298   1.000
    O403    O    0.81270   0.22184   0.66379   1.000
    O404    O    0.18778   0.77726   0.66381   1.000
    O405    O    0.73086   0.17229   0.66488   1.000
    O406    O    0.26962   0.82684   0.66489   1.000
    O407    O    0.73091   0.56036   0.66820   1.000
    O408    O    0.81290   0.59348   0.66941   1.000
    O409    O    0.76306   0.51132   0.67046   1.000
    O410    O    0.26928   0.43851   0.66824   1.000
    O411    O    0.18727   0.40531   0.66948   1.000
    O412    O    0.23705   0.48748   0.67056   1.000
    O413    O    0.06664   0.99049   0.68439   1.000
    O414    O    0.93454   0.00861   0.68442   1.000
    O415    O    0.22852   0.77685   0.69940   1.000
    O416    O    0.77200   0.22225   0.69940   1.000
    O417    O    0.11705   0.93341   0.71624   1.000
    O418    O    0.88412   0.06604   0.71626   1.000
    O419    O    0.67561   0.98147   0.72712   1.000
    O420    O    0.32525   0.01767   0.72732   1.000
    O421    O    0.82649   0.29028   0.73646   1.000
    O422    O    0.69884   0.22109   0.73723   1.000
    O423    O    0.78035   0.17407   0.73951   1.000
    O424    O    0.17397   0.70886   0.73645   1.000
    O425    O    0.30167   0.77789   0.73721   1.000
    O426    O    0.22028   0.82506   0.73954   1.000
    O427    O    0.12809   0.60859   0.73711   1.000
    O428    O    0.87218   0.39052   0.73750   1.000
    O429    O    0.94982   0.15665   0.73489   1.000
    O430    O    0.84280   0.11750   0.74069   1.000
    O431    O    0.04832   0.84301   0.73489   1.000
    O432    O    0.15804   0.88182   0.74072   1.000
    O433    O    0.92324   0.35929   0.73942   1.000
    O434    O    0.07719   0.63999   0.73943   1.000
    O435    O    0.58452   0.99904   0.74419   1.000
    O436    O    0.72732   0.05969   0.74743   1.000
    O437    O    0.66755   0.96824   0.75668   1.000
    O438    O    0.41625   0.99993   0.74430   1.000
    O439    O    0.27345   0.93942   0.74756   1.000
    O440    O    0.33337   0.03080   0.75689   1.000
    O441    O    0.43895   0.89176   0.74581   1.000
    O442    O    0.56164   0.10711   0.74584   1.000
    O443    O    0.12190   0.64250   0.76547   1.000
    O444    O    0.87851   0.35667   0.76549   1.000
    O445    O    0.38354   0.78103   0.79024   1.000
    O446    O    0.61685   0.21789   0.79029   1.000
    O447    O    0.79245   0.12918   0.77136   1.000
    O448    O    0.20818   0.86993   0.77141   1.000
    O449    O    0.39866   0.78106   0.87724   1.000
    O450    O    0.60154   0.21793   0.87725   1.000
    O451    O    0.33736   0.12891   0.89594   1.000
    O452    O    0.66270   0.87002   0.89594   1.000
    O453    O    0.52185   0.64245   0.90179   1.000
    O454    O    0.47809   0.35648   0.90188   1.000
    O455    O    0.30166   0.96807   0.91069   1.000
    O456    O    0.69851   0.03087   0.91077   1.000
    O457    O    0.33305   0.05952   0.91988   1.000
    O458    O    0.27509   0.11723   0.92651   1.000
    O459    O    0.39405   0.17390   0.92783   1.000
    O460    O    0.66702   0.93939   0.91992   1.000
    O461    O    0.72493   0.88163   0.92652   1.000
    O462    O    0.60596   0.82501   0.92782   1.000
    O463    O    0.54618   0.10719   0.92169   1.000
    O464    O    0.52255   0.22108   0.93021   1.000
    O465    O    0.45392   0.89182   0.92171   1.000
    O466    O    0.47748   0.77788   0.93021   1.000
    O467    O    0.56401   0.63983   0.92782   1.000
    O468    O    0.48174   0.60852   0.92978   1.000
    O469    O    0.53613   0.70877   0.93085   1.000
    O470    O    0.43584   0.35899   0.92790   1.000
    O471    O    0.51811   0.39038   0.92990   1.000
    O472    O    0.46381   0.29013   0.93092   1.000
    O473    O    0.41544   0.99902   0.92325   1.000
    O474    O    0.58468   0.99994   0.92328   1.000
    O475    O    0.30668   0.98144   0.94023   1.000
    O476    O    0.69336   0.01744   0.94031   1.000
    O477    O    0.79569   0.84255   0.93206   1.000
    O478    O    0.20429   0.15625   0.93208   1.000
    O479    O    0.81766   0.93288   0.95093   1.000
    O480    O    0.18237   0.06593   0.95090   1.000
    O481    O    0.54967   0.77668   0.96796   1.000
    O482    O    0.45025   0.22218   0.96799   1.000
loop_
    _geom_bond_atom_site_label_1
    _geom_bond_atom_site_label_2
    _geom_bond_distance
    _geom_bond_site_symmetry_2
    _ccdc_geom_bond_type
    C2     O231      1.00687  1_665   S
    C211   O231      1.00687      .   S
    C2     O232      1.00642      .   S
    C217   O232      1.00642      .   S
    C2     O233      1.01031  1_664   S
    C219   O233      1.01031      .   S
    C2     O234      1.00953  1_554   S
    C225   O234      1.00953      .   S
    C136   O235      0.76740      .   S
    C133   O235      0.76740      .   S
    C136   O236      0.54772  1_554   S
    C27    O236      0.54772      .   S
    C136   O237      0.54947  1_554   S
    C29    O237      0.54947      .   S
    C136   O238      0.54877  1_554   S
    C28    O238      0.54877      .   S
    C151   O239      0.76657      .   S
    C148   O239      0.76657      .   S
    C151   O240      0.54799  1_554   S
    C54    O240      0.54799      .   S
    C151   O241      0.54959  1_554   S
    C56    O241      0.54959      .   S
    C151   O242      0.54917  1_554   S
    C55    O242      0.54917      .   S
    C64    O243      0.54896      .   S
    C156   O243      0.54896  1_556   S
    C91    O244      0.54909      .   S
    C171   O244      0.54909  1_556   S
    C92    O245      0.54955      .   S
    C171   O245      0.54955  1_556   S
    C65    O246      0.54975      .   S
    C156   O246      0.54975  1_556   S
    C90    O247      0.54805      .   S
    C171   O247      0.54805  1_556   S
    C63    O248      0.54798      .   S
    C156   O248      0.54798  1_556   S
    C211   O249      0.64825      .   S
    C137   O249      0.64825      .   S
    C217   O250      0.64813      .   S
    C152   O250      0.64813      .   S
    C22    O251      0.51815      .   S
    C197   O251      0.51815      .   S
    C49    O252      0.51824      .   S
    C200   O252      0.51824      .   S
    C133   O253      0.76143      .   S
    C135   O253      0.76143      .   S
    C133   O254      0.94203      .   S
    C185   O254      0.94203      .   S
    C133   O255      0.77028      .   S
    C134   O255      0.77028      .   S
    C148   O256      0.76147      .   S
    C150   O256      0.76147      .   S
    C148   O257      0.94203      .   S
    C188   O257      0.94203      .   S
    C148   O258      0.77031      .   S
    C149   O258      0.77031      .   S
    C25    O259      0.54799      .   S
    C135   O259      0.54799      .   S
    C52    O260      0.54799      .   S
    C150   O260      0.54799      .   S
    C137   O261      0.61765      .   S
    C212   O261      0.61765      .   S
    C137   O262      0.78128      .   S
    C134   O262      0.78128      .   S
    C152   O263      0.61759      .   S
    C218   O263      0.61759      .   S
    C152   O264      0.78122      .   S
    C149   O264      0.78122      .   S
    C26    O265      0.54793      .   S
    C135   O265      0.54793      .   S
    C53    O266      0.54797      .   S
    C150   O266      0.54797      .   S
    C197   O267      1.04752      .   S
    C113   O267      1.04752      .   S
    C197   O268      0.75245  1_655   S
    C134   O268      0.75245      .   S
    C197   O269      0.51395      .   S
    C21    O269      0.51395      .   S
    C200   O270      1.04749      .   S
    C113   O270      1.04749  1_655   S
    C200   O271      0.75243  1_455   S
    C149   O271      0.75243      .   S
    C200   O272      0.50833      .   S
    C48    O272      0.50833      .   S
    C113   O273      1.16514  1_655   S
    C185   O273      1.16514      .   S
    C113   O274      1.16511      .   S
    C188   O274      1.16511      .   S
    C135   O275      0.54920      .   S
    C24    O275      0.54920      .   S
    C150   O276      0.54919      .   S
    C51    O276      0.54919      .   S
    C185   O277      1.18019      .   S
    C119   O277      1.18019      .   S
    C188   O278      1.18020      .   S
    C122   O278      1.18020      .   S
    C134   O279      0.54935      .   S
    C23    O279      0.54935      .   S
    C149   O280      0.54931      .   S
    C50    O280      0.54931      .   S
    C119   O281      1.18028      .   S
    C193   O281      1.18028      .   S
    C122   O282      1.18023      .   S
    C190   O282      1.18023      .   S
    C95    O283      0.54926      .   S
    C174   O283      0.54926      .   S
    C68    O284      0.54934      .   S
    C159   O284      0.54934      .   S
    C96    O285      0.54911      .   S
    C175   O285      0.54911      .   S
    C69    O286      0.54911      .   S
    C160   O286      0.54911      .   S
    C93    O287      0.51455      .   S
    C205   O287      0.51455      .   S
    C66    O288      0.51339      .   S
    C202   O288      0.51339      .   S
    C174   O289      0.75231      .   S
    C205   O289      0.75231  1_655   S
    C174   O290      0.78157      .   S
    C177   O290      0.78157      .   S
    C174   O291      0.77022      .   S
    C173   O291      0.77022      .   S
    C159   O292      0.75224      .   S
    C202   O292      0.75224  1_455   S
    C159   O293      0.78172      .   S
    C162   O293      0.78172      .   S
    C159   O294      0.76996      .   S
    C158   O294      0.76996      .   S
    C193   O295      1.16527      .   S
    C115   O295      1.16527      .   S
    C193   O296      0.94213      .   S
    C173   O296      0.94213      .   S
    C190   O297      1.16512      .   S
    C115   O297      1.16512  1_455   S
    C190   O298      0.94194      .   S
    C158   O298      0.94194      .   S
    C175   O299      0.54799      .   S
    C98    O299      0.54799      .   S
    C175   O300      0.54801      .   S
    C97    O300      0.54801      .   S
    C175   O301      0.76147      .   S
    C173   O301      0.76147      .   S
    C160   O302      0.54787      .   S
    C71    O302      0.54787      .   S
    C160   O303      0.54804      .   S
    C70    O303      0.54804      .   S
    C160   O304      0.76123      .   S
    C158   O304      0.76123      .   S
    C115   O305      1.04742  1_455   S
    C205   O305      1.04742      .   S
    C115   O306      1.04756      .   S
    C202   O306      1.04756      .   S
    C205   O307      0.51824      .   S
    C94    O307      0.51824      .   S
    C202   O308      0.51884      .   S
    C67    O308      0.51884      .   S
    C228   O309      0.60407  1_545   S
    C177   O309      0.60407      .   S
    C222   O310      0.61756  1_565   S
    C162   O310      0.61756      .   S
    C177   O311      0.64810      .   S
    C227   O311      0.64810      .   S
    C162   O312      0.64795      .   S
    C221   O312      0.64795      .   S
    C158   O313      0.76728      .   S
    C161   O313      0.76728      .   S
    C173   O314      0.76701      .   S
    C176   O314      0.76701      .   S
    C227   O315      1.00710      .   S
    C1     O315      1.00710  1_655   S
    C221   O316      1.00741      .   S
    C1     O316      1.00741  1_565   S
    C45    O317      0.54804      .   S
    C146   O317      0.54804      .   S
    C18    O318      0.54810      .   S
    C131   O318      0.54810      .   S
    C47    O319      0.54973      .   S
    C146   O319      0.54973      .   S
    C20    O320      0.54971      .   S
    C131   O320      0.54971      .   S
    C46    O321      0.54909      .   S
    C146   O321      0.54909      .   S
    C19    O322      0.54910      .   S
    C131   O322      0.54910      .   S
    C176   O323      0.54911      .   S
    C100   O323      0.54911      .   S
    C176   O324      0.54968      .   S
    C101   O324      0.54968      .   S
    C176   O325      0.54763      .   S
    C99    O325      0.54763      .   S
    C161   O326      0.54921      .   S
    C73    O326      0.54921      .   S
    C161   O327      0.54979      .   S
    C74    O327      0.54979      .   S
    C161   O328      0.54818      .   S
    C72    O328      0.54818      .   S
    C1     O329      1.00845  1_665   S
    C215   O329      1.00845      .   S
    C1     O330      1.00833      .   S
    C209   O330      1.00833      .   S
    C146   O331      0.76655      .   S
    C143   O331      0.76655      .   S
    C131   O332      0.76661      .   S
    C128   O332      0.76661      .   S
    C215   O333      0.64806      .   S
    C147   O333      0.64806      .   S
    C209   O334      0.64805      .   S
    C132   O334      0.64805      .   S
    C40    O335      0.51809      .   S
    C199   O335      0.51809      .   S
    C13    O336      0.51814      .   S
    C196   O336      0.51814      .   S
    C143   O337      0.76159      .   S
    C145   O337      0.76159      .   S
    C143   O338      0.94209      .   S
    C187   O338      0.94209      .   S
    C143   O339      0.77045      .   S
    C144   O339      0.77045      .   S
    C128   O340      0.76159      .   S
    C130   O340      0.76159      .   S
    C128   O341      0.94213      .   S
    C184   O341      0.94213      .   S
    C128   O342      0.77042      .   S
    C129   O342      0.77042      .   S
    C43    O343      0.54800      .   S
    C145   O343      0.54800      .   S
    C16    O344      0.54806      .   S
    C130   O344      0.54806      .   S
    C147   O345      0.61760      .   S
    C216   O345      0.61760  1_565   S
    C147   O346      0.78170      .   S
    C144   O346      0.78170      .   S
    C132   O347      0.59603      .   S
    C210   O347      0.59603  1_545   S
    C132   O348      0.78179      .   S
    C129   O348      0.78179      .   S
    C44    O349      0.54793      .   S
    C145   O349      0.54793      .   S
    C17    O350      0.54797      .   S
    C130   O350      0.54797      .   S
    C199   O351      1.04779      .   S
    C112   O351      1.04779      .   S
    C199   O352      0.75251      .   S
    C144   O352      0.75251      .   S
    C199   O353      0.51396      .   S
    C39    O353      0.51396      .   S
    C196   O354      1.04767      .   S
    C112   O354      1.04767      .   S
    C196   O355      0.75250      .   S
    C129   O355      0.75250      .   S
    C196   O356      0.51392      .   S
    C12    O356      0.51392      .   S
    C112   O357      1.16531      .   S
    C187   O357      1.16531      .   S
    C112   O358      1.16535      .   S
    C184   O358      1.16535      .   S
    C145   O359      0.54927      .   S
    C42    O359      0.54927      .   S
    C187   O360      1.18060      .   S
    C121   O360      1.18060      .   S
    C130   O361      0.54909      .   S
    C15    O361      0.54909      .   S
    C184   O362      1.18057      .   S
    C118   O362      1.18057      .   S
    C144   O363      0.54932      .   S
    C41    O363      0.54932      .   S
    C129   O364      0.54926      .   S
    C14    O364      0.54926      .   S
    C121   O365      1.18041      .   S
    C191   O365      1.18041      .   S
    C118   O366      1.18042      .   S
    C194   O366      1.18042      .   S
    C104   O367      0.55045      .   S
    C179   O367      0.55045      .   S
    C77    O368      0.54939      .   S
    C164   O368      0.54939      .   S
    C78    O369      0.54915      .   S
    C165   O369      0.54915      .   S
    C105   O370      0.54924      .   S
    C180   O370      0.54924      .   S
    C102   O371      0.51395      .   S
    C206   O371      0.51395      .   S
    C75    O372      0.51387      .   S
    C203   O372      0.51387      .   S
    C164   O373      0.75256      .   S
    C203   O373      0.75256      .   S
    C164   O374      0.78133      .   S
    C167   O374      0.78133      .   S
    C164   O375      0.77042      .   S
    C163   O375      0.77042      .   S
    C179   O376      0.75255      .   S
    C206   O376      0.75255      .   S
    C179   O377      0.78173      .   S
    C182   O377      0.78173      .   S
    C179   O378      0.77038      .   S
    C178   O378      0.77038      .   S
    C191   O379      1.16508      .   S
    C116   O379      1.16508      .   S
    C191   O380      0.94201      .   S
    C163   O380      0.94201      .   S
    C194   O381      1.16518      .   S
    C116   O381      1.16518      .   S
    C194   O382      0.94217      .   S
    C178   O382      0.94217      .   S
    C116   O383      1.04791      .   S
    C206   O383      1.04791      .   S
    C116   O384      1.04810      .   S
    C203   O384      1.04810      .   S
    C165   O385      0.54792      .   S
    C80    O385      0.54792      .   S
    C165   O386      0.54800      .   S
    C79    O386      0.54800      .   S
    C165   O387      0.76145      .   S
    C163   O387      0.76145      .   S
    C180   O388      0.54781      .   S
    C107   O388      0.54781      .   S
    C180   O389      0.54800      .   S
    C106   O389      0.54800      .   S
    C180   O390      0.76141      .   S
    C178   O390      0.76141      .   S
    C206   O391      0.51820      .   S
    C103   O391      0.51820      .   S
    C203   O392      0.51819      .   S
    C76    O392      0.51819      .   S
    C230   O393      0.61984  1_655   S
    C182   O393      0.61984      .   S
    C224   O394      0.58995  1_455   S
    C167   O394      0.58995      .   S
    C167   O395      0.64847      .   S
    C223   O395      0.64847      .   S
    C182   O396      0.64752      .   S
    C229   O396      0.64752      .   S
    C163   O397      0.76663      .   S
    C166   O397      0.76663      .   S
    C178   O398      0.76670      .   S
    C181   O398      0.76670      .   S
    C229   O399      1.00968      .   S
    C0     O399      1.00968  1_565   S
    C223   O400      1.00906      .   S
    C0     O400      1.00906  1_455   S
    C9     O401      0.54809      .   S
    C126   O401      0.54809      .   S
    C36    O402      0.54811      .   S
    C141   O402      0.54811      .   S
    C38    O403      0.54978      .   S
    C141   O403      0.54978      .   S
    C11    O404      0.54974      .   S
    C126   O404      0.54974      .   S
    C37    O405      0.54913      .   S
    C141   O405      0.54913      .   S
    C10    O406      0.54914      .   S
    C126   O406      0.54914      .   S
    C166   O407      0.54914      .   S
    C82    O407      0.54914      .   S
    C166   O408      0.54977      .   S
    C83    O408      0.54977      .   S
    C166   O409      0.54786      .   S
    C81    O409      0.54786      .   S
    C181   O410      0.54904      .   S
    C109   O410      0.54904      .   S
    C181   O411      0.54974      .   S
    C110   O411      0.54974      .   S
    C181   O412      0.54809      .   S
    C108   O412      0.54809      .   S
    C0     O413      1.00788      .   S
    C207   O413      1.00788      .   S
    C0     O414      1.00819  1_465   S
    C213   O414      1.00819      .   S
    C126   O415      0.76671      .   S
    C123   O415      0.76671      .   S
    C141   O416      0.76667      .   S
    C138   O416      0.76667      .   S
    C207   O417      0.64801      .   S
    C127   O417      0.64801      .   S
    C213   O418      0.64802      .   S
    C142   O418      0.64802      .   S
    C31    O419      0.51721      .   S
    C198   O419      0.51721      .   S
    C4     O420      0.51825      .   S
    C195   O420      0.51825      .   S
    C138   O421      0.76149      .   S
    C140   O421      0.76149      .   S
    C138   O422      0.94204      .   S
    C186   O422      0.94204      .   S
    C138   O423      0.77046      .   S
    C139   O423      0.77046      .   S
    C123   O424      0.76151      .   S
    C125   O424      0.76151      .   S
    C123   O425      0.94214      .   S
    C183   O425      0.94214      .   S
    C123   O426      0.77035      .   S
    C124   O426      0.77035      .   S
    C7     O427      0.55172      .   S
    C125   O427      0.55172      .   S
    C34    O428      0.54804      .   S
    C140   O428      0.54804      .   S
    C142   O429      0.59660      .   S
    C214   O429      0.59660  1_455   S
    C142   O430      0.78188      .   S
    C139   O430      0.78188      .   S
    C127   O431      0.61771      .   S
    C208   O431      0.61771  1_655   S
    C127   O432      0.78170      .   S
    C124   O432      0.78170      .   S
    C35    O433      0.54793      .   S
    C140   O433      0.54793      .   S
    C8     O434      0.54797      .   S
    C125   O434      0.54797      .   S
    C198   O435      1.04769      .   S
    C111   O435      1.04769      .   S
    C198   O436      0.75270  1_565   S
    C139   O436      0.75270      .   S
    C198   O437      0.51472      .   S
    C30    O437      0.51472      .   S
    C195   O438      1.04737  1_545   S
    C111   O438      1.04737      .   S
    C195   O439      0.75247  1_545   S
    C124   O439      0.75247      .   S
    C195   O440      0.51395      .   S
    C3     O440      0.51395      .   S
    C111   O441      1.16516      .   S
    C183   O441      1.16516      .   S
    C111   O442      1.16493  1_565   S
    C186   O442      1.16493      .   S
    C125   O443      0.54911      .   S
    C6     O443      0.54911      .   S
    C140   O444      0.54920      .   S
    C33    O444      0.54920      .   S
    C183   O445      1.18082      .   S
    C117   O445      1.18082      .   S
    C186   O446      1.18088      .   S
    C120   O446      1.18088      .   S
    C139   O447      0.54942      .   S
    C32    O447      0.54942      .   S
    C124   O448      0.54958      .   S
    C5     O448      0.54958      .   S
    C117   O449      1.18087      .   S
    C192   O449      1.18087      .   S
    C120   O450      1.17976      .   S
    C189   O450      1.17976      .   S
    C59    O451      0.54932      .   S
    C154   O451      0.54932      .   S
    C86    O452      0.54934      .   S
    C169   O452      0.54934      .   S
    C87    O453      0.54920      .   S
    C170   O453      0.54920      .   S
    C60    O454      0.54912      .   S
    C155   O454      0.54912      .   S
    C57    O455      0.51388      .   S
    C201   O455      0.51388      .   S
    C84    O456      0.51386      .   S
    C204   O456      0.51386      .   S
    C154   O457      0.75265      .   S
    C201   O457      0.75265  1_565   S
    C154   O458      0.78211      .   S
    C157   O458      0.78211      .   S
    C154   O459      0.77040      .   S
    C153   O459      0.77040      .   S
    C169   O460      0.75267      .   S
    C204   O460      0.75267  1_545   S
    C169   O461      0.78209      .   S
    C172   O461      0.78209      .   S
    C169   O462      0.77038      .   S
    C168   O462      0.77038      .   S
    C189   O463      1.16527      .   S
    C114   O463      1.16527  1_565   S
    C189   O464      0.94263      .   S
    C153   O464      0.94263      .   S
    C192   O465      1.16521      .   S
    C114   O465      1.16521      .   S
    C192   O466      0.94223      .   S
    C168   O466      0.94223      .   S
    C170   O467      0.54794      .   S
    C89    O467      0.54794      .   S
    C170   O468      0.54810      .   S
    C88    O468      0.54810      .   S
    C170   O469      0.76150      .   S
    C168   O469      0.76150      .   S
    C155   O470      0.54796      .   S
    C62    O470      0.54796      .   S
    C155   O471      0.54810      .   S
    C61    O471      0.54810      .   S
    C155   O472      0.76152      .   S
    C153   O472      0.76152      .   S
    C114   O473      1.04787      .   S
    C201   O473      1.04787      .   S
    C114   O474      1.04799      .   S
    C204   O474      1.04799  1_545   S
    C201   O475      0.51816      .   S
    C58    O475      0.51816      .   S
    C204   O476      0.51826      .   S
    C85    O476      0.51826      .   S
    C226   O477      0.61771      .   S
    C172   O477      0.61771      .   S
    C220   O478      0.61771      .   S
    C157   O478      0.61771      .   S
    C172   O479      0.64777      .   S
    C225   O479      0.64777      .   S
    C157   O480      0.64725      .   S
    C219   O480      0.64725      .   S
    C168   O481      0.76674      .   S
    C171   O481      0.76674      .   S
    C153   O482      0.76667      .   S
    C156   O482      0.76667      .   S
