# CIF file generated by openbabel 2.4.90, see http://openbabel.sf.net
data_I
_chemical_name_common ''
_cell_length_a 22.915
_cell_length_b 13.727
_cell_length_c 18.178
_cell_angle_alpha 100.366
_cell_angle_beta 89.956
_cell_angle_gamma 114.764
_space_group_name_H-M_alt 'P 1'
_space_group_name_Hall 'P 1'
loop_
    _symmetry_equiv_pos_as_xyz
    x,y,z
loop_
    _atom_site_label
    _atom_site_type_symbol
    _atom_site_fract_x
    _atom_site_fract_y
    _atom_site_fract_z
    _atom_site_occupancy
    Zn0     Zn   0.99100   0.39815   0.40315   1.000
    Zn1     Zn   0.29219   0.60228   0.09688   1.000
    Zn2     Zn   0.79218   0.60228   0.09688   1.000
    Zn3     Zn   0.00899   0.60192   0.59680   1.000
    Zn4     Zn   0.50899   0.60192   0.59683   1.000
    Zn5     Zn   0.20781   0.39779   0.90310   1.000
    Zn6     Zn   0.70780   0.39778   0.90310   1.000
    Zn7     Zn   0.49100   0.39815   0.40315   1.000
    C8      C    0.79728   0.70274   0.24245   1.000
    C9      C    0.04464   0.65407   0.43974   1.000
    C10     C    0.54466   0.65409   0.43975   1.000
    C11     C    0.44591   0.29788   0.25755   1.000
    C12     C    0.94589   0.29788   0.25756   1.000
    C13     C    0.21723   0.34609   0.06029   1.000
    C14     C    0.71725   0.34607   0.06027   1.000
    C15     C    0.29727   0.70273   0.24244   1.000
    C16     C    0.45533   0.34598   0.56023   1.000
    C17     C    0.95531   0.34598   0.56022   1.000
    C18     C    0.05410   0.70219   0.74240   1.000
    C19     C    0.55410   0.70219   0.74242   1.000
    C20     C    0.28276   0.65399   0.93970   1.000
    C21     C    0.78272   0.65401   0.93970   1.000
    C22     C    0.20273   0.29734   0.75754   1.000
    C23     C    0.70269   0.29733   0.75753   1.000
    O24     O    0.04206   0.56261   0.40623   1.000
    O25     O    0.54203   0.56261   0.40622   1.000
    O26     O    0.47980   0.39472   0.25001   1.000
    O27     O    0.97980   0.39472   0.25001   1.000
    O28     O    0.44607   0.26313   0.31890   1.000
    O29     O    0.94606   0.26313   0.31890   1.000
    O30     O    0.02683   0.67466   0.50504   1.000
    O31     O    0.52680   0.67466   0.50503   1.000
    O32     O    0.26025   0.43775   0.09384   1.000
    O33     O    0.76022   0.43775   0.09385   1.000
    O34     O    0.28274   0.60597   0.25005   1.000
    O35     O    0.78271   0.60596   0.25004   1.000
    O36     O    0.31497   0.73746   0.18110   1.000
    O37     O    0.81495   0.73746   0.18109   1.000
    O38     O    0.18918   0.32524   0.99494   1.000
    O39     O    0.68915   0.32525   0.99495   1.000
    O40     O    0.45796   0.43746   0.59376   1.000
    O41     O    0.95795   0.43746   0.59376   1.000
    O42     O    0.02020   0.60536   0.74998   1.000
    O43     O    0.52018   0.60536   0.74998   1.000
    O44     O    0.05394   0.73694   0.68108   1.000
    O45     O    0.55392   0.73694   0.68108   1.000
    O46     O    0.47318   0.32541   0.49494   1.000
    O47     O    0.97317   0.32542   0.49494   1.000
    O48     O    0.23976   0.56232   0.90614   1.000
    O49     O    0.73977   0.56231   0.90613   1.000
    O50     O    0.21727   0.39411   0.74994   1.000
    O51     O    0.71727   0.39411   0.74995   1.000
    O52     O    0.18504   0.26260   0.81880   1.000
    O53     O    0.68504   0.26261   0.81889   1.000
    O54     O    0.31084   0.67483   0.00503   1.000
    O55     O    0.81084   0.67482   0.00500   1.000
loop_
    _geom_bond_atom_site_label_1
    _geom_bond_atom_site_label_2
    _geom_bond_distance
    _geom_bond_site_symmetry_2
    _ccdc_geom_bond_type
    O55    Zn2       2.05050      .   S
    O55    C21       1.27701  1_554   S
    O54    Zn1       2.05008      .   S
    O54    C20       1.27702  1_554   S
    C14    O33       1.26984      .   S
    C14    O39       1.27709  1_554   S
    C13    O32       1.26986      .   S
    C13    O38       1.27711  1_554   S
    O32    Zn1       2.05185      .   S
    O33    Zn2       2.05181      .   S
    Zn1    O36       2.05599      .   S
    Zn2    O37       2.05585      .   S
    O37    C8        1.29000      .   S
    O36    C15       1.28987      .   S
    C15    O34       1.26088      .   S
    C8     O35       1.26084      .   S
    O27    C12       1.26082      .   S
    O26    C11       1.26081      .   S
    C11    O28       1.28999      .   S
    C12    O29       1.28989      .   S
    O28    Zn7       2.05498      .   S
    O29    Zn0       2.05498      .   S
    Zn0    O24       2.05196  1_655   S
    Zn0    O47       2.05050      .   S
    Zn7    O25       2.05189      .   S
    Zn7    O46       2.05055      .   S
    O25    C10       1.27008      .   S
    O24    C9        1.27010      .   S
    C9     O30       1.27699      .   S
    C10    O31       1.27702      .   S
    O46    C16       1.27712      .   S
    O47    C17       1.27707      .   S
    O31    Zn4       2.05067      .   S
    O30    Zn3       2.05005      .   S
    C17    O41       1.27010      .   S
    C16    O40       1.27007      .   S
    O41    Zn3       2.05200  1_655   S
    O40    Zn4       2.05195      .   S
    Zn3    O44       2.05530      .   S
    Zn4    O45       2.05497      .   S
    O44    C18       1.28952      .   S
    O45    C19       1.28994      .   S
    C18    O42       1.26097      .   S
    C19    O43       1.26085      .   S
    O50    C22       1.26087      .   S
    O51    C23       1.26083      .   S
    C23    O53       1.28996      .   S
    C22    O52       1.28852      .   S
    O52    Zn5       2.05688      .   S
    O53    Zn6       2.05589      .   S
    Zn5    O48       2.05177      .   S
    Zn5    O38       2.04993      .   S
    Zn6    O49       2.05175      .   S
    Zn6    O39       2.05002      .   S
    O49    C21       1.26971      .   S
    O48    C20       1.26986      .   S
