# CIF file generated by openbabel 2.4.90, see http://openbabel.sf.net
data_I
_chemical_name_common ''
_cell_length_a 22.915
_cell_length_b 13.727
_cell_length_c 18.178
_cell_angle_alpha 100.366
_cell_angle_beta 89.956
_cell_angle_gamma 114.764
_space_group_name_H-M_alt 'P 1'
_space_group_name_Hall 'P 1'
loop_
    _symmetry_equiv_pos_as_xyz
    x,y,z
loop_
    _atom_site_label
    _atom_site_type_symbol
    _atom_site_fract_x
    _atom_site_fract_y
    _atom_site_fract_z
    _atom_site_occupancy
    C0      C    0.79728   0.70274   0.24245   1.000
    C1      C    0.04464   0.65407   0.43974   1.000
    C2      C    0.54466   0.65409   0.43975   1.000
    C3      C    0.44591   0.29788   0.25755   1.000
    C4      C    0.94589   0.29788   0.25756   1.000
    C5      C    0.21723   0.34609   0.06029   1.000
    C6      C    0.71725   0.34607   0.06027   1.000
    C7      C    0.29727   0.70273   0.24244   1.000
    C8      C    0.45533   0.34598   0.56023   1.000
    C9      C    0.95531   0.34598   0.56022   1.000
    C10     C    0.05410   0.70219   0.74240   1.000
    C11     C    0.55410   0.70219   0.74242   1.000
    C12     C    0.28276   0.65399   0.93970   1.000
    C13     C    0.78272   0.65401   0.93970   1.000
    C14     C    0.20273   0.29734   0.75754   1.000
    C15     C    0.70269   0.29733   0.75753   1.000
