# CIF file generated by openbabel 2.4.90, see http://openbabel.sf.net
data_I
_chemical_name_common ''
_cell_length_a 17.665
_cell_length_b 15.53
_cell_length_c 19.77
_cell_angle_alpha 90.028
_cell_angle_beta 89.996
_cell_angle_gamma 90.022
_space_group_name_H-M_alt 'P 1'
_space_group_name_Hall 'P 1'
loop_
    _symmetry_equiv_pos_as_xyz
    x,y,z
loop_
    _atom_site_label
    _atom_site_type_symbol
    _atom_site_fract_x
    _atom_site_fract_y
    _atom_site_fract_z
    _atom_site_occupancy
    H0      H    0.02529   0.14320   0.85225   1.000
    H1      H    0.52529   0.14320   0.85227   1.000
    H2      H    0.45561   0.24015   0.93450   1.000
    H3      H    0.95560   0.24014   0.93454   1.000
    H4      H    0.00343   0.24921   0.05255   1.000
    H5      H    0.50339   0.24921   0.05257   1.000
    H6      H    0.26048   0.94857   0.15766   1.000
    H7      H    0.76038   0.94852   0.15771   1.000
    H8      H    0.38157   0.97680   0.09311   1.000
    H9      H    0.88148   0.97672   0.09310   1.000
    H10     H    0.37289   0.05642   0.98350   1.000
    H11     H    0.87284   0.05637   0.98359   1.000
    H12     H    0.25550   0.14574   0.60824   1.000
    H13     H    0.75544   0.14570   0.60825   1.000
    H14     H    0.34032   0.29933   0.61611   1.000
    H15     H    0.84029   0.29929   0.61610   1.000
    H16     H    0.34565   0.23629   0.85595   1.000
    H17     H    0.84564   0.23628   0.85594   1.000
    H18     H    0.28891   0.14173   0.85191   1.000
    H19     H    0.78890   0.14172   0.85191   1.000
    H20     H    0.38778   0.13553   0.83635   1.000
    H21     H    0.88777   0.13552   0.83634   1.000
    H22     H    0.39119   0.38270   0.71057   1.000
    H23     H    0.89117   0.38268   0.71054   1.000
    H24     H    0.37298   0.34998   0.79454   1.000
    H25     H    0.87295   0.34996   0.79450   1.000
    H26     H    0.48421   0.24957   0.79097   1.000
    H27     H    0.98419   0.24957   0.79097   1.000
    H28     H    0.00793   0.35882   0.78166   1.000
    H29     H    0.50794   0.35882   0.78167   1.000
    H30     H    0.49183   0.23146   0.66270   1.000
    H31     H    0.99183   0.23145   0.66275   1.000
    H32     H    0.02088   0.33961   0.65637   1.000
    H33     H    0.52087   0.33961   0.65630   1.000
    H34     H    0.13024   0.23756   0.65216   1.000
    H35     H    0.63021   0.23756   0.65215   1.000
    H36     H    0.10436   0.19275   0.73062   1.000
    H37     H    0.60434   0.19274   0.73061   1.000
    H38     H    0.15518   0.25297   0.83447   1.000
    H39     H    0.65517   0.25296   0.83446   1.000
    H40     H    0.24204   0.39866   0.86498   1.000
    H41     H    0.74202   0.39866   0.86498   1.000
    H42     H    0.22326   0.45348   0.62433   1.000
    H43     H    0.72324   0.45348   0.62433   1.000
    H44     H    0.16450   0.36414   0.60555   1.000
    H45     H    0.66448   0.36414   0.60554   1.000
    H46     H    0.12298   0.46111   0.63500   1.000
    H47     H    0.62297   0.46112   0.63500   1.000
    H48     H    0.22551   0.85681   0.35200   1.000
    H49     H    0.72485   0.85705   0.35216   1.000
    H50     H    0.29455   0.75958   0.43438   1.000
    H51     H    0.79439   0.75992   0.43432   1.000
    H52     H    0.24619   0.75057   0.55221   1.000
    H53     H    0.74639   0.75056   0.55223   1.000
    H54     H    0.48956   0.05125   0.65784   1.000
    H55     H    0.98983   0.05089   0.65770   1.000
    H56     H    0.36847   0.02325   0.59322   1.000
    H57     H    0.86876   0.02310   0.59304   1.000
    H58     H    0.37716   0.94395   0.48342   1.000
    H59     H    0.87755   0.94470   0.48285   1.000
    H60     H    0.49461   0.85398   0.10821   1.000
    H61     H    0.99457   0.85396   0.10816   1.000
    H62     H    0.40985   0.70036   0.11618   1.000
    H63     H    0.90984   0.70032   0.11618   1.000
    H64     H    0.40434   0.76401   0.35598   1.000
    H65     H    0.90431   0.76408   0.35594   1.000
    H66     H    0.46121   0.85845   0.35187   1.000
    H67     H    0.96112   0.85857   0.35183   1.000
    H68     H    0.36236   0.86480   0.33630   1.000
    H69     H    0.86225   0.86482   0.33624   1.000
    H70     H    0.35902   0.61717   0.21069   1.000
    H71     H    0.85898   0.61720   0.21071   1.000
    H72     H    0.37717   0.65015   0.29465   1.000
    H73     H    0.87716   0.65020   0.29465   1.000
    H74     H    0.26587   0.75039   0.29000   1.000
    H75     H    0.76585   0.75045   0.29101   1.000
    H76     H    0.24219   0.64112   0.28170   1.000
    H77     H    0.74218   0.64117   0.28172   1.000
    H78     H    0.25837   0.76826   0.16275   1.000
    H79     H    0.75836   0.76829   0.16276   1.000
    H80     H    0.22931   0.66011   0.15641   1.000
    H81     H    0.72930   0.66014   0.15643   1.000
    H82     H    0.11999   0.76218   0.15210   1.000
    H83     H    0.61997   0.76220   0.15210   1.000
    H84     H    0.14584   0.80719   0.23054   1.000
    H85     H    0.64581   0.80721   0.23054   1.000
    H86     H    0.09490   0.74731   0.33441   1.000
    H87     H    0.59491   0.74730   0.33440   1.000
    H88     H    0.00809   0.60163   0.36505   1.000
    H89     H    0.50811   0.60161   0.36506   1.000
    H90     H    0.02720   0.54575   0.12457   1.000
    H91     H    0.52720   0.54577   0.12457   1.000
    H92     H    0.87300   0.03857   0.36496   1.000
    C93     C    0.10379   0.09867   0.92744   1.000
    H94     H    0.08543   0.63541   0.10555   1.000
    H95     H    0.58543   0.63542   0.10555   1.000
    H96     H    0.12752   0.53888   0.13522   1.000
    H97     H    0.62752   0.53889   0.13522   1.000
    H98     H    0.47566   0.64314   0.64802   1.000
    H99     H    0.97564   0.64320   0.64800   1.000
    H100    H    0.04477   0.74036   0.56550   1.000
    H101    H    0.54480   0.74026   0.56560   1.000
    H102    H    0.49641   0.74928   0.44779   1.000
    H103    H    0.99634   0.74936   0.44777   1.000
    H104    H    0.23973   0.44909   0.34238   1.000
    H105    H    0.73968   0.44910   0.34240   1.000
    H106    H    0.11871   0.47683   0.40717   1.000
    H107    H    0.61867   0.47684   0.40720   1.000
    H108    H    0.12761   0.55516   0.51730   1.000
    H109    H    0.62759   0.55519   0.51740   1.000
    H110    H    0.24480   0.64599   0.89190   1.000
    H111    H    0.74479   0.64600   0.89195   1.000
    H112    H    0.16025   0.79972   0.88409   1.000
    H113    H    0.66024   0.79972   0.88409   1.000
    H114    H    0.15436   0.73615   0.64429   1.000
    H115    H    0.65436   0.73613   0.64428   1.000
    H116    H    0.21130   0.64180   0.64831   1.000
    H117    H    0.71128   0.64177   0.64831   1.000
    H118    H    0.11246   0.63527   0.66394   1.000
    H119    H    0.61244   0.63527   0.66394   1.000
    H120    H    0.10930   0.88288   0.78984   1.000
    H121    H    0.60930   0.88288   0.78982   1.000
    C122    C    0.21995   0.79471   0.51622   1.000
    C123    C    0.71993   0.79466   0.51635   1.000
    C124    C    0.12581   0.89485   0.49548   1.000
    C125    C    0.62547   0.89450   0.49590   1.000
    C126    C    0.05790   0.93993   0.52301   1.000
    H127    H    0.12765   0.85030   0.70580   1.000
    H128    H    0.62764   0.85027   0.70581   1.000
    H129    H    0.01631   0.75003   0.70895   1.000
    H130    H    0.51629   0.75003   0.70895   1.000
    H131    H    0.49264   0.85925   0.71851   1.000
    H132    H    0.99263   0.85925   0.71851   1.000
    H133    H    0.00843   0.73155   0.83713   1.000
    H134    H    0.50844   0.73156   0.83713   1.000
    H135    H    0.47939   0.83967   0.84372   1.000
    H136    H    0.97937   0.83967   0.84372   1.000
    H137    H    0.37004   0.73753   0.84753   1.000
    H138    H    0.87001   0.73754   0.84752   1.000
    H139    H    0.39606   0.69293   0.76901   1.000
    H140    H    0.89603   0.69295   0.76899   1.000
    H141    H    0.34492   0.75289   0.66539   1.000
    H142    H    0.84489   0.75292   0.66530   1.000
    H143    H    0.25809   0.89856   0.63501   1.000
    H144    H    0.75804   0.89858   0.63501   1.000
    H145    H    0.27756   0.95347   0.87575   1.000
    H146    H    0.77755   0.95348   0.87576   1.000
    H147    H    0.33698   0.86468   0.89422   1.000
    H148    H    0.83696   0.86469   0.89422   1.000
    H149    H    0.37774   0.96191   0.86441   1.000
    H150    H    0.87772   0.96192   0.86441   1.000
    H151    H    0.27475   0.35644   0.14790   1.000
    H152    H    0.77472   0.35642   0.14790   1.000
    H153    H    0.20532   0.25984   0.06529   1.000
    H154    H    0.70529   0.25982   0.06520   1.000
    H155    H    0.25306   0.25190   0.94720   1.000
    H156    H    0.75304   0.25188   0.94700   1.000
    H157    H    0.01073   0.55127   0.84251   1.000
    H158    H    0.51074   0.55128   0.84251   1.000
    H159    H    0.13158   0.52313   0.90740   1.000
    H160    H    0.63158   0.52314   0.90739   1.000
    H161    H    0.12234   0.44461   0.01746   1.000
    H162    H    0.62235   0.44462   0.01745   1.000
    H163    H    0.00543   0.35437   0.39194   1.000
    H164    H    0.50529   0.35441   0.39197   1.000
    H165    H    0.09011   0.20074   0.38403   1.000
    H166    H    0.58983   0.20068   0.38420   1.000
    H167    H    0.09573   0.26394   0.14422   1.000
    H168    H    0.59580   0.26376   0.14436   1.000
    H169    H    0.03884   0.35834   0.14825   1.000
    H170    H    0.53893   0.35818   0.14830   1.000
    H171    H    0.13769   0.36480   0.16389   1.000
    H172    H    0.63778   0.36462   0.16401   1.000
    H173    H    0.14084   0.11735   0.28956   1.000
    H174    H    0.64080   0.11728   0.28994   1.000
    H175    H    0.12261   0.15012   0.20560   1.000
    H176    H    0.62254   0.14980   0.20594   1.000
    H177    H    0.23400   0.25031   0.20900   1.000
    H178    H    0.73390   0.25009   0.20921   1.000
    H179    H    0.25759   0.14106   0.21843   1.000
    H180    H    0.75749   0.14085   0.21861   1.000
    H181    H    0.24166   0.26858   0.33725   1.000
    H182    H    0.74174   0.26839   0.33743   1.000
    H183    H    0.27063   0.16043   0.34368   1.000
    H184    H    0.77077   0.16026   0.34383   1.000
    H185    H    0.38004   0.26252   0.34778   1.000
    H186    H    0.88012   0.26240   0.34783   1.000
    H187    H    0.35416   0.30720   0.26928   1.000
    H188    H    0.85414   0.30709   0.26930   1.000
    H189    H    0.40518   0.24707   0.16550   1.000
    H190    H    0.90492   0.24691   0.16555   1.000
    H191    H    0.49195   0.10132   0.13513   1.000
    H192    H    0.99181   0.10128   0.13502   1.000
    H193    H    0.47271   0.04687   0.37591   1.000
    H194    H    0.97323   0.04670   0.37573   1.000
    H195    H    0.41327   0.13567   0.39430   1.000
    H196    H    0.91417   0.13575   0.39447   1.000
    H197    H    0.37251   0.03835   0.36468   1.000
    N198    N    0.72100   0.42849   0.76000   1.000
    N199    N    0.15094   0.31463   0.73684   1.000
    N200    N    0.65094   0.31462   0.73683   1.000
    N201    N    0.25677   0.07441   0.98826   1.000
    N202    N    0.75672   0.07438   0.98832   1.000
    N203    N    0.08897   0.15919   0.03950   1.000
    N204    N    0.58892   0.15917   0.03950   1.000
    N205    N    0.46831   0.86014   0.21427   1.000
    C206    C    0.60377   0.09866   0.92747   1.000
    C207    C    0.04202   0.14749   0.90525   1.000
    C208    C    0.54201   0.14749   0.90526   1.000
    C209    C    0.00373   0.20095   0.95015   1.000
    C210    C    0.50371   0.20096   0.95016   1.000
    C211    C    0.02998   0.20525   0.01659   1.000
    C212    C    0.52995   0.20525   0.01661   1.000
    C213    C    0.12452   0.10552   0.99603   1.000
    C214    C    0.62448   0.10551   0.99606   1.000
    C215    C    0.19252   0.06065   0.02357   1.000
    C216    C    0.69246   0.06063   0.02361   1.000
    C217    C    0.19094   0.01328   0.08450   1.000
    C218    C    0.69086   0.01325   0.08454   1.000
    C219    C    0.26022   0.98364   0.10992   1.000
    C220    C    0.76013   0.98359   0.10997   1.000
    C221    C    0.32694   0.99890   0.07435   1.000
    C222    C    0.82686   0.99885   0.07441   1.000
    C223    C    0.32204   0.04360   0.01336   1.000
    C224    C    0.82198   0.04355   0.01342   1.000
    C225    C    0.28429   0.17651   0.65027   1.000
    C226    C    0.78426   0.17648   0.65026   1.000
    C227    C    0.32652   0.25039   0.65320   1.000
    C228    C    0.82649   0.25035   0.65319   1.000
    C229    C    0.32254   0.19046   0.75579   1.000
    C230    C    0.82252   0.19044   0.75579   1.000
    C231    C    0.33695   0.17540   0.82876   1.000
    C232    C    0.83694   0.17539   0.82875   1.000
    C233    C    0.39725   0.32902   0.74626   1.000
    C234    C    0.89722   0.32900   0.74624   1.000
    C235    C    0.48028   0.30441   0.75587   1.000
    C236    C    0.98026   0.30440   0.75586   1.000
    C237    C    0.02173   0.28315   0.69009   1.000
    C238    C    0.52172   0.28316   0.69009   1.000
    C239    C    0.10313   0.25233   0.70070   1.000
    C240    C    0.60311   0.25233   0.70077   1.000
    C241    C    0.17141   0.30831   0.80443   1.000
    C242    C    0.67141   0.30830   0.80442   1.000
    C243    C    0.21456   0.37922   0.81838   1.000
    C244    C    0.71455   0.37921   0.81830   1.000
    C245    C    0.18170   0.38835   0.71101   1.000
    C246    C    0.68169   0.38834   0.71100   1.000
    C247    C    0.17240   0.41848   0.64035   1.000
    C248    C    0.67239   0.41848   0.64035   1.000
    C249    C    0.14679   0.90158   0.42695   1.000
    C250    C    0.64627   0.90144   0.42738   1.000
    C251    C    0.20854   0.85257   0.40493   1.000
    C252    C    0.70805   0.85265   0.40513   1.000
    C253    C    0.24650   0.79894   0.44980   1.000
    C254    C    0.74628   0.79910   0.44996   1.000
    C255    C    0.55751   0.93943   0.52351   1.000
    C256    C    0.05945   0.98684   0.58422   1.000
    C257    C    0.55910   0.98664   0.58455   1.000
    C258    C    0.48983   0.01632   0.61000   1.000
    C259    C    0.99013   0.01625   0.60979   1.000
    C260    C    0.42310   0.00115   0.57442   1.000
    C261    C    0.92341   0.00124   0.57412   1.000
    C262    C    0.42800   0.95662   0.51331   1.000
    C263    C    0.92837   0.95720   0.51281   1.000
    C264    C    0.46581   0.82330   0.15025   1.000
    C265    C    0.96576   0.82331   0.15021   1.000
    C266    C    0.42362   0.74940   0.15323   1.000
    C267    C    0.92360   0.74939   0.15321   1.000
    C268    C    0.42754   0.80957   0.25579   1.000
    C269    C    0.92749   0.80963   0.25574   1.000
    C270    C    0.41312   0.82481   0.32874   1.000
    C271    C    0.91306   0.82489   0.32869   1.000
    C272    C    0.35291   0.67094   0.24634   1.000
    C273    C    0.85288   0.67098   0.24630   1.000
    C274    C    0.26985   0.69551   0.25590   1.000
    C275    C    0.76983   0.69556   0.25592   1.000
    C276    C    0.22846   0.71663   0.19010   1.000
    C277    C    0.72844   0.71666   0.19012   1.000
    C278    C    0.14707   0.74753   0.20074   1.000
    C279    C    0.64705   0.74756   0.20074   1.000
    C280    C    0.07870   0.69187   0.30442   1.000
    C281    C    0.57870   0.69187   0.30443   1.000
    C282    C    0.03554   0.62101   0.31840   1.000
    C283    C    0.53556   0.62100   0.31844   1.000
    C284    C    0.06846   0.61157   0.21108   1.000
    C285    C    0.56846   0.61158   0.21100   1.000
    C286    C    0.07787   0.58119   0.14048   1.000
    C287    C    0.57787   0.58120   0.14040   1.000
    C288    C    0.39687   0.59838   0.57309   1.000
    C289    C    0.89685   0.59843   0.57308   1.000
    C290    C    0.45867   0.64737   0.59509   1.000
    C291    C    0.95865   0.64743   0.59508   1.000
    C292    C    0.49671   0.70093   0.55011   1.000
    C293    C    0.99665   0.70102   0.55010   1.000
    C294    C    0.47014   0.70517   0.48378   1.000
    C295    C    0.97007   0.70526   0.48377   1.000
    C296    C    0.37587   0.60512   0.50458   1.000
    C297    C    0.87584   0.60516   0.50457   1.000
    C298    C    0.30792   0.56002   0.47709   1.000
    C299    C    0.80789   0.56005   0.47709   1.000
    C300    C    0.30940   0.51315   0.41586   1.000
    C301    C    0.80936   0.51317   0.41587   1.000
    C302    C    0.24007   0.48370   0.39035   1.000
    C303    C    0.74003   0.48372   0.39037   1.000
    C304    C    0.17338   0.49870   0.42605   1.000
    C305    C    0.67334   0.49872   0.42607   1.000
    C306    C    0.17840   0.54271   0.48737   1.000
    C307    C    0.67837   0.54273   0.48739   1.000
    C308    C    0.21596   0.67672   0.84996   1.000
    C309    C    0.71595   0.67673   0.84996   1.000
    C310    C    0.17389   0.75066   0.84702   1.000
    C311    C    0.67388   0.75066   0.84702   1.000
    C312    C    0.17767   0.69053   0.74440   1.000
    C313    C    0.67766   0.69052   0.74444   1.000
    C314    C    0.16320   0.67534   0.67149   1.000
    C315    C    0.66319   0.67533   0.67149   1.000
    C316    C    0.10325   0.82927   0.75403   1.000
    C317    C    0.60324   0.82926   0.75402   1.000
    C318    C    0.02021   0.80475   0.74421   1.000
    C319    C    0.52019   0.80474   0.74421   1.000
    C320    C    0.47862   0.78330   0.80980   1.000
    C321    C    0.97860   0.78331   0.80986   1.000
    C322    C    0.39725   0.75243   0.79899   1.000
    C323    C    0.89723   0.75245   0.79898   1.000
    C324    C    0.32879   0.80828   0.69545   1.000
    C325    C    0.82877   0.80831   0.69544   1.000
    C326    C    0.28563   0.87914   0.68156   1.000
    C327    C    0.78560   0.87917   0.68156   1.000
    C328    C    0.31885   0.88852   0.78880   1.000
    C329    C    0.81882   0.88854   0.78885   1.000
    C330    C    0.32851   0.91887   0.85944   1.000
    C331    C    0.82849   0.91888   0.85943   1.000
    C332    C    0.35322   0.40174   0.07299   1.000
    C333    C    0.85318   0.40174   0.07000   1.000
    C334    C    0.29152   0.35258   0.09495   1.000
    C335    C    0.79149   0.35256   0.09495   1.000
    C336    C    0.25332   0.29932   0.04983   1.000
    C337    C    0.75329   0.29930   0.04980   1.000
    C338    C    0.27955   0.29566   0.98336   1.000
    C339    C    0.77953   0.29565   0.98335   1.000
    C340    C    0.37402   0.39544   0.00000   1.000
    C341    C    0.87399   0.39543   0.00000   1.000
    C342    C    0.44208   0.44040   0.97000   1.000
    C343    C    0.94205   0.44040   0.97700   1.000
    C344    C    0.44081   0.48738   0.91585   1.000
    C345    C    0.94078   0.48738   0.91580   1.000
    C346    C    0.01023   0.51660   0.89043   1.000
    C347    C    0.51024   0.51660   0.89043   1.000
    C348    C    0.07684   0.50136   0.92618   1.000
    C349    C    0.57684   0.50137   0.92617   1.000
    C350    C    0.07162   0.45726   0.98741   1.000
    C351    C    0.57163   0.45727   0.98740   1.000
    C352    C    0.03421   0.32360   0.34991   1.000
    C353    C    0.53411   0.32359   0.34999   1.000
    C354    C    0.07634   0.24969   0.34696   1.000
    C355    C    0.57620   0.24965   0.34711   1.000
    C356    C    0.07245   0.30967   0.24438   1.000
    C357    C    0.57248   0.30957   0.24450   1.000
    C358    C    0.08691   0.32479   0.17143   1.000
    C359    C    0.58699   0.32462   0.17155   1.000
    C360    C    0.14695   0.17103   0.25387   1.000
    C361    C    0.64690   0.17087   0.25416   1.000
    C362    C    0.23001   0.19554   0.24419   1.000
    C363    C    0.72997   0.19534   0.24439   1.000
    C364    C    0.27149   0.21685   0.30993   1.000
    C365    C    0.77156   0.21668   0.31007   1.000
    C366    C    0.35289   0.24767   0.29919   1.000
    C367    C    0.85294   0.24755   0.29926   1.000
    C368    C    0.42131   0.19171   0.19561   1.000
    C369    C    0.92119   0.19160   0.19559   1.000
    C370    C    0.46443   0.12080   0.18170   1.000
    C371    C    0.96436   0.12076   0.18163   1.000
    C372    C    0.43130   0.11159   0.28902   1.000
    C373    C    0.93154   0.11160   0.28902   1.000
    C374    C    0.42172   0.08139   0.35963   1.000
    C375    C    0.92228   0.08145   0.35967   1.000
    N376    N    0.28176   0.13982   0.71431   1.000
    N377    N    0.78173   0.13979   0.71431   1.000
    N378    N    0.35040   0.25845   0.71979   1.000
    N379    N    0.85039   0.25842   0.71978   1.000
    N380    N    0.22101   0.42850   0.76000   1.000
    N381    N    0.96825   0.86019   0.21421   1.000
    N382    N    0.39972   0.74148   0.21983   1.000
    N383    N    0.89969   0.74151   0.21981   1.000
    N384    N    0.02911   0.57157   0.26009   1.000
    N385    N    0.52913   0.57156   0.26010   1.000
    N386    N    0.09922   0.68536   0.23684   1.000
    N387    N    0.59921   0.68537   0.23685   1.000
    N388    N    0.49327   0.92582   0.48817   1.000
    N389    N    0.99367   0.92661   0.48756   1.000
    N390    N    0.16106   0.84104   0.53901   1.000
    N391    N    0.66095   0.84072   0.53932   1.000
    N392    N    0.21838   0.63989   0.78593   1.000
    N393    N    0.71838   0.63989   0.78593   1.000
    N394    N    0.14995   0.75864   0.78044   1.000
    N395    N    0.64994   0.75863   0.78044   1.000
    N396    N    0.27937   0.92854   0.73994   1.000
    N397    N    0.77935   0.92856   0.73994   1.000
    N398    N    0.34949   0.81475   0.76299   1.000
    N399    N    0.84947   0.81477   0.76298   1.000
    N400    N    0.24373   0.57331   0.51258   1.000
    N401    N    0.74371   0.57335   0.51259   1.000
    N402    N    0.41117   0.65890   0.46103   1.000
    N403    N    0.91111   0.65897   0.46102   1.000
    N404    N    0.03172   0.36032   0.28588   1.000
    N405    N    0.53172   0.36028   0.28593   1.000
    N406    N    0.10023   0.24164   0.28036   1.000
    N407    N    0.60018   0.24154   0.28050   1.000
    N408    N    0.47071   0.07148   0.24007   1.000
    N409    N    0.97086   0.07150   0.24001   1.000
    N410    N    0.40067   0.18534   0.26316   1.000
    N411    N    0.90073   0.18526   0.26319   1.000
    N412    N    0.00619   0.42682   0.01252   1.000
    N413    N    0.50620   0.42682   0.01251   1.000
    N414    N    0.33845   0.34207   0.96065   1.000
    N415    N    0.83842   0.34206   0.96065   1.000
loop_
    _geom_bond_atom_site_label_1
    _geom_bond_atom_site_label_2
    _geom_bond_distance
    _geom_bond_site_symmetry_2
    _ccdc_geom_bond_type
    C340   C332      1.49218      .   S
    C340   N414      1.29839  1_554   S
    C340   C342      1.51153  1_554   S
    C341   C333      1.43513      .   S
    C341   N415      1.29839  1_554   S
    C341   C343      1.46279  1_554   S
    N413   C342      1.42620  1_554   S
    N413   C351      1.34382  1_554   S
    N412   C343      1.34971  1_454   S
    N412   C350      1.34385  1_554   S
    C223   C221      1.39429  1_545   S
    C223   H10       1.09318  1_554   S
    C223   N201      1.34370  1_554   S
    C224   C222      1.39435  1_545   S
    C224   H11       1.09296  1_554   S
    C224   N202      1.34365  1_554   S
    C211   N203      1.34291      .   S
    C211   H4        1.09147      .   S
    C211   C209      1.39461  1_554   S
    C212   N204      1.34271      .   S
    C212   H5        1.09152      .   S
    C212   C210      1.39469  1_554   S
    H162   C351      1.09298  1_554   S
    H161   C350      1.09296  1_554   S
    C215   C217      1.41203      .   S
    C215   N201      1.34938  1_554   S
    C215   C213      1.49191  1_554   S
    C216   C218      1.41209      .   S
    C216   N202      1.34930  1_554   S
    C216   C214      1.49188  1_554   S
    N204   C214      1.35146  1_554   S
    N203   C213      1.35180  1_554   S
    C337   H154      1.08968      .   S
    C337   C335      1.39110      .   S
    C337   C339      1.39417  1_554   S
    C336   H153      1.08998      .   S
    C336   C334      1.39076      .   S
    C336   C338      1.39453  1_554   S
    C333   C335      1.41908      .   S
    C332   C334      1.39961      .   S
    C221   H8        1.08958      .   S
    C221   C219      1.39278      .   S
    C222   H9        1.08908      .   S
    C222   C220      1.39280      .   S
    C217   C219      1.40105  1_545   S
    C218   C220      1.40106  1_545   S
    C335   H152      1.08956      .   S
    C334   H151      1.08956      .   S
    H94    C286      1.09738      .   S
    H95    C287      1.09641      .   S
    H61    C265      1.08487      .   S
    H60    C264      1.08487      .   S
    C219   H6        1.08988      .   S
    C220   H7        1.08998      .   S
    H63    C267      1.08405      .   S
    H62    C266      1.08406      .   S
    H91    C287      1.09604      .   S
    H90    C286      1.09650      .   S
    H192   C371      1.08417      .   S
    H191   C370      1.08412      .   S
    H97    C287      1.10080      .   S
    H96    C286      1.10096      .   S
    C287   C285      1.48247      .   S
    C286   C284      1.48250      .   S
    H167   C358      1.09824      .   S
    H168   C359      1.09822      .   S
    H169   C358      1.09695      .   S
    H170   C359      1.09736      .   S
    C265   C267      1.36944      .   S
    C265   N381      1.38935      .   S
    C264   C266      1.36942      .   S
    C264   N205      1.38942      .   S
    H83    C279      1.09803      .   S
    H82    C278      1.09806      .   S
    C267   N383      1.38818      .   S
    C266   N382      1.38822      .   S
    H80    C276      1.10169      .   S
    H81    C277      1.10179      .   S
    H78    C276      1.10209      .   S
    H79    C277      1.10214      .   S
    H171   C358      1.10123      .   S
    H172   C359      1.10124      .   S
    H189   C368      1.08414      .   S
    H190   C369      1.08341      .   S
    C358   C356      1.48345      .   S
    C359   C357      1.48345      .   S
    C371   C369      1.36703      .   S
    C371   N409      1.38976      .   S
    C370   C368      1.36702      .   S
    C370   N408      1.38988      .   S
    C276   C278      1.53033      .   S
    C276   C274      1.52814      .   S
    C277   C279      1.53026      .   S
    C277   C275      1.52808      .   S
    C369   N411      1.38796      .   S
    C368   N410      1.38787      .   S
    C278   H84       1.09791      .   S
    C278   N386      1.46842      .   S
    C279   H85       1.09791      .   S
    C279   N387      1.46854      .   S
    H175   C360      1.09572      .   S
    H176   C361      1.09570      .   S
    H177   C362      1.10139      .   S
    H178   C363      1.10095      .   S
    H70    C272      1.09782      .   S
    H71    C273      1.09717      .   S
    C285   N387      1.36692      .   S
    C285   N385      1.34589      .   S
    C284   N386      1.36625      .   S
    C284   N384      1.34466      .   S
    N381   C269      1.34507      .   S
    N205   C268      1.34515      .   S
    H179   C362      1.10104      .   S
    H180   C363      1.10101      .   S
    N383   C273      1.46876      .   S
    N383   C269      1.36533      .   S
    N382   C272      1.46908      .   S
    N382   C268      1.36536      .   S
    N386   C280      1.38798      .   S
    N387   C281      1.38792      .   S
    N409   C373      1.34485      .   S
    N408   C372      1.34498      .   S
    C362   C360      1.52774      .   S
    C362   C364      1.52814      .   S
    C356   N406      1.36536      .   S
    C356   N404      1.34510      .   S
    C363   C361      1.52790      .   S
    C363   C365      1.52814      .   S
    C357   N407      1.36499      .   S
    C357   N405      1.34501      .   S
    C273   C275      1.52793      .   S
    C273   H73       1.09644      .   S
    C272   C274      1.52780      .   S
    C272   H72       1.09572      .   S
    C360   N406      1.46908      .   S
    C360   H173      1.09769      .   S
    C361   N407      1.46873      .   S
    C361   H174      1.09772      .   S
    C269   C271      1.48352      .   S
    C268   C270      1.48341      .   S
    C274   H76       1.10104      .   S
    C274   H74       1.08875      .   S
    C275   H77       1.10099      .   S
    C275   H75       1.10107      .   S
    N384   C282      1.38938      .   S
    N385   C283      1.38985      .   S
    N410   C372      1.36637      .   S
    N410   C366      1.46856      .   S
    N411   C373      1.36637      .   S
    N411   C367      1.46856      .   S
    H187   C366      1.09792      .   S
    H188   C367      1.09859      .   S
    N406   C354      1.38819      .   S
    N407   C355      1.38897      .   S
    N404   C352      1.38939      .   S
    N405   C353      1.38959      .   S
    C373   C375      1.48238      .   S
    C372   C374      1.48248      .   S
    C366   C364      1.53016      .   S
    C366   H185      1.09801      .   S
    C367   C365      1.53029      .   S
    C367   H186      1.09795      .   S
    C280   C282      1.36689      .   S
    C280   H86       1.08347      .   S
    C281   C283      1.36700      .   S
    C281   H87       1.08316      .   S
    C364   H181      1.10217      .   S
    C364   H183      1.10167      .   S
    C365   H182      1.10223      .   S
    C365   H184      1.10175      .   S
    C282   H88       1.08462      .   S
    C283   H89       1.08409      .   S
    C271   H69       1.10128      .   S
    C271   H67       1.09691      .   S
    C271   H65       1.09823      .   S
    C270   H68       1.10122      .   S
    C270   H66       1.09683      .   S
    C270   H64       1.09814      .   S
    H104   C302      1.08992      .   S
    H105   C303      1.08999      .   S
    C354   C352      1.36945      .   S
    C354   H165      1.08396      .   S
    C355   C353      1.36941      .   S
    C355   H166      1.08388      .   S
    C352   H163      1.08493      .   S
    C353   H164      1.08483      .   S
    H48    C251      1.09051      .   S
    H49    C252      1.09059      .   S
    C374   H197      1.10087      .   S
    C374   H193      1.09677      .   S
    C374   H195      1.09645      .   S
    C375   H92       1.10089      .   S
    C375   H194      1.09670      .   S
    C375   H196      1.09753      .   S
    C302   C300      1.40098      .   S
    C302   C304      1.39289      .   S
    C303   C301      1.40096      .   S
    C303   C305      1.39281      .   S
    C251   C249      1.39966      .   S
    C251   C253      1.38978      .   S
    C252   C250      1.39963      .   S
    C252   C254      1.39093      .   S
    H106   C304      1.08959      .   S
    H107   C305      1.08957      .   S
    C300   C298      1.41238      .   S
    C301   C299      1.41236      .   S
    C304   C306      1.39422      .   S
    C305   C307      1.39429      .   S
    C249   C124      1.40853      .   S
    C250   C125      1.40775      .   S
    H51    C254      1.09007      .   S
    H50    C253      1.08959      .   S
    H103   C295      1.09145      .   S
    H102   C294      1.09142      .   S
    C253   C122      1.39591      .   S
    C254   C123      1.39437      .   S
    N403   C295      1.34281      .   S
    N403   C297      1.35206      .   S
    N402   C294      1.34276      .   S
    N402   C296      1.35205      .   S
    C299   C297      1.49193      .   S
    C299   N401      1.34923      .   S
    C298   C296      1.49191      .   S
    C298   N400      1.34922      .   S
    H59    C263      1.09289      .   S
    H58    C262      1.09284      .   S
    C295   C293      1.39450      .   S
    C294   C292      1.39443      .   S
    C306   N400      1.34371      .   S
    C306   H108      1.09202      .   S
    C307   N401      1.34372      .   S
    C307   H109      1.09282      .   S
    N389   C263      1.34374      .   S
    N389   C126      1.34954  1_655   S
    N388   C262      1.34365      .   S
    N388   C255      1.34922      .   S
    C124   C126      1.49182      .   S
    C124   N390      1.35205      .   S
    C125   C255      1.49208      .   S
    C125   N391      1.35217      .   S
    C297   C289      1.40837      .   S
    C296   C288      1.40831      .   S
    C263   C261      1.39422  1_565   S
    C262   C260      1.39443  1_565   S
    C122   N390      1.34286      .   S
    C122   H52       1.09158      .   S
    C123   N391      1.34298      .   S
    C123   H53       1.09153      .   S
    C126   C256      1.41241      .   S
    C255   C257      1.41203      .   S
    C293   H100      1.08994  1_655   S
    C293   C291      1.39077      .   S
    C292   H101      1.09004      .   S
    C292   C290      1.39071      .   S
    C289   C291      1.39969      .   S
    C288   C290      1.39965      .   S
    C261   H57       1.08962      .   S
    C261   C259      1.39297      .   S
    C260   H56       1.08960      .   S
    C260   C258      1.39268      .   S
    C256   C259      1.40145  1_465   S
    C257   C258      1.40099  1_565   S
    C291   H99       1.09051      .   S
    C290   H98       1.09064      .   S
    H45    C248      1.09749      .   S
    H44    C247      1.09737      .   S
    H12    C225      1.08496      .   S
    H13    C226      1.08482      .   S
    C259   H55       1.08909      .   S
    C258   H54       1.09015      .   S
    H15    C228      1.08406      .   S
    H14    C227      1.08409      .   S
    H42    C247      1.09662      .   S
    H43    C248      1.09661      .   S
    H47    C248      1.10100      .   S
    H46    C247      1.10100      .   S
    H144   C327      1.08414      .   S
    H143   C326      1.08399      .   S
    C248   C246      1.48245      .   S
    C247   C245      1.48261      .   S
    H115   C315      1.09818      .   S
    H114   C314      1.09815      .   S
    H117   C315      1.09693      .   S
    H116   C314      1.09692      .   S
    C226   C228      1.36944      .   S
    C226   N377      1.38947      .   S
    C225   C227      1.36941      .   S
    C225   N376      1.38937      .   S
    H35    C240      1.09800      .   S
    H34    C239      1.09667      .   S
    C228   N379      1.38812      .   S
    C227   N378      1.38807      .   S
    H33    C238      1.10259      .   S
    H32    C237      1.10172      .   S
    H30    C238      1.10264      .   S
    H31    C237      1.10236  1_655   S
    H119   C315      1.10122      .   S
    H118   C314      1.10120      .   S
    H142   C325      1.08434      .   S
    H141   C324      1.08347      .   S
    C315   C313      1.48346      .   S
    C314   C312      1.48268      .   S
    C326   C324      1.36701      .   S
    C326   N396      1.38998      .   S
    C327   C325      1.36702      .   S
    C327   N397      1.38992      .   S
    C238   C240      1.53030      .   S
    C238   C235      1.52824      .   S
    C237   C239      1.53010      .   S
    C237   C236      1.52838  1_455   S
    C325   N399      1.38803      .   S
    C324   N398      1.38803      .   S
    C239   H36       1.09864      .   S
    C239   N199      1.46934      .   S
    C240   H37       1.09784      .   S
    C240   N200      1.46858      .   S
    H127   C316      1.09627      .   S
    H128   C317      1.09579      .   S
    H129   C318      1.10095      .   S
    H130   C319      1.10093      .   S
    H23    C234      1.09783      .   S
    H22    C233      1.09776      .   S
    C246   N200      1.36633      .   S
    C246   N198      1.34482      .   S
    C245   N199      1.36631      .   S
    C245   N380      1.34467      .   S
    N376   C229      1.34503      .   S
    N377   C230      1.34513      .   S
    H131   C319      1.10102      .   S
    H132   C318      1.10117  1_655   S
    N379   C234      1.46911      .   S
    N379   C230      1.36533      .   S
    N378   C233      1.46912      .   S
    N378   C229      1.36531      .   S
    N200   C242      1.38788      .   S
    N199   C241      1.38787      .   S
    N396   C328      1.34410      .   S
    N397   C329      1.34487      .   S
    C319   C317      1.52778      .   S
    C319   C320      1.52703      .   S
    C318   C316      1.52779      .   S
    C318   C321      1.52833  1_455   S
    C312   N394      1.36593      .   S
    C312   N392      1.34573      .   S
    C313   N395      1.36553      .   S
    C313   N393      1.34522      .   S
    C234   C236      1.52783      .   S
    C234   H25       1.09542      .   S
    C233   C235      1.52782      .   S
    C233   H24       1.09569      .   S
    C317   N395      1.46893      .   S
    C317   H121      1.09783      .   S
    C316   N394      1.46892      .   S
    C316   H120      1.09780      .   S
    C230   C232      1.48340      .   S
    C229   C231      1.48360      .   S
    C236   H28       1.10122  1_655   S
    C236   H27       1.10105      .   S
    C235   H29       1.10102      .   S
    C235   H26       1.10101      .   S
    N380   C243      1.38980      .   S
    N198   C244      1.38849      .   S
    N399   C329      1.36630      .   S
    N399   C323      1.46852      .   S
    N398   C328      1.36590      .   S
    N398   C322      1.46847      .   S
    H140   C323      1.09787      .   S
    H139   C322      1.09780      .   S
    N395   C311      1.38815      .   S
    N394   C310      1.38816      .   S
    N393   C309      1.38952      .   S
    N392   C308      1.38949      .   S
    C328   C330      1.48360      .   S
    C329   C331      1.48245      .   S
    C323   C321      1.53022      .   S
    C323   H138      1.09805      .   S
    C322   C320      1.53006      .   S
    C322   H137      1.09800      .   S
    C242   C244      1.36680      .   S
    C242   H39       1.08348      .   S
    C241   C243      1.36707      .   S
    C241   H38       1.08347      .   S
    C320   H134      1.10276      .   S
    C320   H135      1.10252      .   S
    C321   H133      1.10238  1_655   S
    C321   H136      1.10176      .   S
    C244   H41       1.08539      .   S
    C243   H40       1.08405      .   S
    C232   H21       1.10125      .   S
    C232   H19       1.09685      .   S
    C232   H17       1.09822      .   S
    C231   H20       1.10124      .   S
    C231   H18       1.09680      .   S
    C231   H16       1.09817      .   S
    H158   C347      1.09000      .   S
    H157   C346      1.08996      .   S
    C311   C309      1.36930      .   S
    C311   H113      1.08406      .   S
    C310   C308      1.36931      .   S
    C310   H112      1.08402      .   S
    C309   H111      1.08489      .   S
    C308   H110      1.08417      .   S
    H0     C207      1.09071      .   S
    H1     C208      1.09046      .   S
    C331   H150      1.10094      .   S
    C331   H146      1.09686      .   S
    C331   H148      1.09749      .   S
    C330   H149      1.10091      .   S
    C330   H145      1.09676      .   S
    C330   H147      1.09730      .   S
    C347   C344      1.40088      .   S
    C347   C349      1.39279      .   S
    C346   C345      1.40092  1_455   S
    C346   C348      1.39290      .   S
    C207   C93       1.39960      .   S
    C207   C209      1.39093      .   S
    C208   C206      1.39965      .   S
    C208   C210      1.39100      .   S
    H160   C349      1.08955      .   S
    H159   C348      1.08955      .   S
    C345   C343      1.41333      .   S
    C344   C342      1.29604      .   S
    C349   C351      1.39416      .   S
    C348   C350      1.39415      .   S
    C93    C213      1.40860      .   S
    C206   C214      1.40850      .   S
    H2     C210      1.09029      .   S
    H3     C209      1.09038  1_655   S
    H156   C339      1.09392      .   S
    H155   C338      1.09147      .   S
    N414   C338      1.34289      .   S
    N415   C339      1.34285      .   S
