# CIF file generated by openbabel 2.4.90, see http://openbabel.sf.net
data_I
_chemical_name_common ''
_cell_length_a 17.665
_cell_length_b 15.53
_cell_length_c 19.77
_cell_angle_alpha 90.028
_cell_angle_beta 89.996
_cell_angle_gamma 90.022
_space_group_name_H-M_alt 'P 1'
_space_group_name_Hall 'P 1'
loop_
    _symmetry_equiv_pos_as_xyz
    x,y,z
loop_
    _atom_site_label
    _atom_site_type_symbol
    _atom_site_fract_x
    _atom_site_fract_y
    _atom_site_fract_z
    _atom_site_occupancy
    Zn0     Zn   0.71630   0.03725   0.74162   1.000
    Zn1     Zn   0.03379   0.96270   0.24153   1.000
    Zn2     Zn   0.53368   0.96273   0.24162   1.000
    Zn3     Zn   0.28385   0.53736   0.75851   1.000
    Zn4     Zn   0.78383   0.53736   0.75851   1.000
    Zn5     Zn   0.46625   0.46272   0.25850   1.000
    Zn6     Zn   0.96620   0.46274   0.25851   1.000
    Zn7     Zn   0.21637   0.03725   0.74161   1.000
    C8      C    0.14424   0.04213   0.87673   1.000
    C9      C    0.64423   0.04213   0.87670   1.000
    C10     C    0.11837   0.99065   0.12095   1.000
    C11     C    0.61826   0.99062   0.12096   1.000
    C12     C    0.10674   0.95796   0.37592   1.000
    C13     C    0.60583   0.95795   0.37670   1.000
    C14     C    0.13202   0.00932   0.62078   1.000
    C15     C    0.63170   0.00926   0.62097   1.000
    C16     C    0.35677   0.54204   0.62413   1.000
    C17     C    0.85677   0.54206   0.62412   1.000
    C18     C    0.38191   0.49070   0.37926   1.000
    C19     C    0.88186   0.49070   0.37925   1.000
    C20     C    0.39333   0.45798   0.12414   1.000
    C21     C    0.89328   0.45798   0.12414   1.000
    C22     C    0.36843   0.51028   0.87925   1.000
    C23     C    0.86840   0.51027   0.87925   1.000
    O24     O    0.14941   0.96311   0.88550   1.000
    O25     O    0.64941   0.96311   0.88558   1.000
    O26     O    0.16880   0.08544   0.82474   1.000
    O27     O    0.66880   0.08545   0.82478   1.000
    O28     O    0.05829   0.98054   0.08897   1.000
    O29     O    0.55821   0.98047   0.08894   1.000
    O30     O    0.12627   0.98149   0.18614   1.000
    O31     O    0.62610   0.98154   0.18616   1.000
    O32     O    0.10297   0.03726   0.38371   1.000
    O33     O    0.60073   0.03700   0.38500   1.000
    O34     O    0.08104   0.91416   0.32462   1.000
    O35     O    0.58117   0.91457   0.32475   1.000
    O36     O    0.19214   0.01944   0.58880   1.000
    O37     O    0.69175   0.01937   0.58895   1.000
    O38     O    0.12408   0.01841   0.68598   1.000
    O39     O    0.62387   0.01845   0.68617   1.000
    O40     O    0.35299   0.46275   0.61630   1.000
    O41     O    0.85299   0.46277   0.61637   1.000
    O42     O    0.33109   0.58587   0.67542   1.000
    O43     O    0.83109   0.58587   0.67542   1.000
    O44     O    0.44206   0.48061   0.41113   1.000
    O45     O    0.94202   0.48062   0.41112   1.000
    O46     O    0.37390   0.48154   0.31407   1.000
    O47     O    0.87384   0.48155   0.31407   1.000
    O48     O    0.39708   0.53727   0.11646   1.000
    O49     O    0.89705   0.53727   0.11646   1.000
    O50     O    0.41897   0.41414   0.17540   1.000
    O51     O    0.91891   0.41414   0.17540   1.000
    O52     O    0.30856   0.52178   0.91125   1.000
    O53     O    0.80853   0.52177   0.91120   1.000
    O54     O    0.37627   0.51831   0.81397   1.000
    O55     O    0.87625   0.51831   0.81397   1.000
loop_
    _geom_bond_atom_site_label_1
    _geom_bond_atom_site_label_2
    _geom_bond_distance
    _geom_bond_site_symmetry_2
    _ccdc_geom_bond_type
    O29    C11       1.24527      .   S
    O28    C10       1.24530      .   S
    O49    C21       1.24256      .   S
    O48    C20       1.24258      .   S
    C10    O30       1.30418      .   S
    C11    O31       1.30415      .   S
    C20    O50       1.30261      .   S
    C21    O51       1.30247      .   S
    O51    Zn6       1.99139      .   S
    O50    Zn5       1.99110      .   S
    O30    Zn1       1.98815      .   S
    O31    Zn2       1.98811      .   S
    Zn1    O34       1.99134      .   S
    Zn2    O35       1.99149      .   S
    Zn5    O46       1.98837      .   S
    Zn6    O47       1.98840      .   S
    O46    C18       1.30425      .   S
    O47    C19       1.30410      .   S
    O34    C12       1.30250      .   S
    O35    C13       1.30289      .   S
    C12    O32       1.24289  1_565   S
    C13    O33       1.24166  1_565   S
    C19    O45       1.24543      .   S
    C18    O44       1.24537      .   S
    O36    C14       1.24591      .   S
    O37    C15       1.24526      .   S
    O40    C16       1.24281      .   S
    O41    C17       1.24261      .   S
    C14    O38       1.30420      .   S
    C15    O39       1.30416      .   S
    C17    O43       1.30265      .   S
    C16    O42       1.30260      .   S
    O43    Zn4       1.99087      .   S
    O42    Zn3       1.99071      .   S
    O38    Zn7       1.98816      .   S
    O39    Zn0       1.98814      .   S
    Zn7    O26       1.99160      .   S
    Zn0    O27       1.99158      .   S
    Zn4    O55       1.98899      .   S
    Zn3    O54       1.98910      .   S
    O55    C23       1.30404      .   S
    O54    C22       1.30403      .   S
    O26    C8        1.30285      .   S
    O27    C9        1.30190      .   S
    C9     O25       1.24315  1_545   S
    C8     O24       1.24282  1_545   S
    C22    O52       1.24518      .   S
    C23    O53       1.24469      .   S
