# CIF file generated by openbabel 2.4.90, see http://openbabel.sf.net
data_I
_chemical_name_common ''
_cell_length_a 17.665
_cell_length_b 15.53
_cell_length_c 19.77
_cell_angle_alpha 90.028
_cell_angle_beta 89.996
_cell_angle_gamma 90.022
_space_group_name_H-M_alt 'P 1'
_space_group_name_Hall 'P 1'
loop_
    _symmetry_equiv_pos_as_xyz
    x,y,z
loop_
    _atom_site_label
    _atom_site_type_symbol
    _atom_site_fract_x
    _atom_site_fract_y
    _atom_site_fract_z
    _atom_site_occupancy
    C0      C    0.14424   0.04213   0.87673   1.000
    C1      C    0.64423   0.04213   0.87670   1.000
    C2      C    0.11837   0.99065   0.12095   1.000
    C3      C    0.61826   0.99062   0.12096   1.000
    C4      C    0.10674   0.95796   0.37592   1.000
    C5      C    0.60583   0.95795   0.37670   1.000
    C6      C    0.13202   0.00932   0.62078   1.000
    C7      C    0.63170   0.00926   0.62097   1.000
    C8      C    0.35677   0.54204   0.62413   1.000
    C9      C    0.85677   0.54206   0.62412   1.000
    C10     C    0.38191   0.49070   0.37926   1.000
    C11     C    0.88186   0.49070   0.37925   1.000
    C12     C    0.39333   0.45798   0.12414   1.000
    C13     C    0.89328   0.45798   0.12414   1.000
    C14     C    0.36843   0.51028   0.87925   1.000
    C15     C    0.86840   0.51027   0.87925   1.000
