# CIF file generated by openbabel 2.4.90, see http://openbabel.sf.net
data_I
_chemical_name_common ''
_cell_length_a 17.665
_cell_length_b 15.53
_cell_length_c 19.77
_cell_angle_alpha 90.028
_cell_angle_beta 89.996
_cell_angle_gamma 90.022
_space_group_name_H-M_alt 'P 1'
_space_group_name_Hall 'P 1'
loop_
    _symmetry_equiv_pos_as_xyz
    x,y,z
loop_
    _atom_site_label
    _atom_site_type_symbol
    _atom_site_fract_x
    _atom_site_fract_y
    _atom_site_fract_z
    _atom_site_occupancy
    Zr0     Zr   0.21637   0.03725   0.74161   1.000
    Zr1     Zr   0.71630   0.03725   0.74162   1.000
    Zr2     Zr   0.03379   0.96270   0.24153   1.000
    Zr3     Zr   0.53368   0.96273   0.24162   1.000
    Zr4     Zr   0.28385   0.53736   0.75851   1.000
    Zr5     Zr   0.78383   0.53736   0.75851   1.000
    Zr6     Zr   0.46625   0.46272   0.25850   1.000
    Zr7     Zr   0.96620   0.46274   0.25851   1.000
    Zr8     Zr   0.14424   0.04213   0.87673   1.000
    Zr9     Zr   0.64423   0.04213   0.87670   1.000
    Zr10    Zr   0.11837   0.99065   0.12095   1.000
    Zr11    Zr   0.61826   0.99062   0.12096   1.000
    Zr12    Zr   0.10674   0.95796   0.37592   1.000
    Zr13    Zr   0.60583   0.95795   0.37670   1.000
    Zr14    Zr   0.13202   0.00932   0.62078   1.000
    Zr15    Zr   0.63170   0.00926   0.62097   1.000
    Zr16    Zr   0.35677   0.54204   0.62413   1.000
    Zr17    Zr   0.85677   0.54206   0.62412   1.000
    Zr18    Zr   0.38191   0.49070   0.37926   1.000
    Zr19    Zr   0.88186   0.49070   0.37925   1.000
    Zr20    Zr   0.39333   0.45798   0.12414   1.000
    Zr21    Zr   0.89328   0.45798   0.12414   1.000
    Zr22    Zr   0.36843   0.51028   0.87925   1.000
    Zr23    Zr   0.86840   0.51027   0.87925   1.000
    Zr24    Zr   0.14941   0.96311   0.88550   1.000
    Zr25    Zr   0.64941   0.96311   0.88558   1.000
    Zr26    Zr   0.16880   0.08544   0.82474   1.000
    Zr27    Zr   0.66880   0.08545   0.82478   1.000
    Zr28    Zr   0.05829   0.98054   0.08897   1.000
    Zr29    Zr   0.55821   0.98047   0.08894   1.000
    Zr30    Zr   0.12627   0.98149   0.18614   1.000
    Zr31    Zr   0.62610   0.98154   0.18616   1.000
    Zr32    Zr   0.10297   0.03726   0.38371   1.000
    Zr33    Zr   0.60073   0.03700   0.38500   1.000
    Zr34    Zr   0.08104   0.91416   0.32462   1.000
    Zr35    Zr   0.58117   0.91457   0.32475   1.000
    Zr36    Zr   0.19214   0.01944   0.58880   1.000
    Zr37    Zr   0.69175   0.01937   0.58895   1.000
    Zr38    Zr   0.12408   0.01841   0.68598   1.000
    Zr39    Zr   0.62387   0.01845   0.68617   1.000
    Zr40    Zr   0.35299   0.46275   0.61630   1.000
    Zr41    Zr   0.85299   0.46277   0.61637   1.000
    Zr42    Zr   0.33109   0.58587   0.67542   1.000
    Zr43    Zr   0.83109   0.58587   0.67542   1.000
    Zr44    Zr   0.44206   0.48061   0.41113   1.000
    Zr45    Zr   0.94202   0.48062   0.41112   1.000
    Zr46    Zr   0.37390   0.48154   0.31407   1.000
    Zr47    Zr   0.87384   0.48155   0.31407   1.000
    Zr48    Zr   0.39708   0.53727   0.11646   1.000
    Zr49    Zr   0.89705   0.53727   0.11646   1.000
    Zr50    Zr   0.41897   0.41414   0.17540   1.000
    Zr51    Zr   0.91891   0.41414   0.17540   1.000
    Zr52    Zr   0.30856   0.52178   0.91125   1.000
    Zr53    Zr   0.80853   0.52177   0.91120   1.000
    Zr54    Zr   0.37627   0.51831   0.81397   1.000
    Zr55    Zr   0.87625   0.51831   0.81397   1.000
    O56     O    0.58824   0.98555   0.10495   1.000
    O57     O    0.08833   0.98559   0.10496   1.000
    O58     O    0.89517   0.49762   0.12030   1.000
    O59     O    0.39520   0.49763   0.12030   1.000
    O60     O    0.12232   0.98607   0.15355   1.000
    O61     O    0.62218   0.98608   0.15356   1.000
    O62     O    0.40615   0.43606   0.14977   1.000
    O63     O    0.90610   0.43606   0.14977   1.000
    O64     O    0.94256   0.43844   0.21696   1.000
    O65     O    0.44261   0.43843   0.21695   1.000
    O66     O    0.08003   0.97210   0.21384   1.000
    O67     O    0.57989   0.97213   0.21389   1.000
    O68     O    0.05741   0.93843   0.28307   1.000
    O69     O    0.55743   0.93865   0.28318   1.000
    O70     O    0.42008   0.47213   0.28629   1.000
    O71     O    0.92002   0.47214   0.28629   1.000
    O72     O    0.37791   0.48612   0.34666   1.000
    O73     O    0.87785   0.48612   0.34666   1.000
    O74     O    0.09389   0.93606   0.35027   1.000
    O75     O    0.59350   0.93626   0.35073   1.000
    O76     O    0.10485   0.99761   0.37981   1.000
    O77     O    0.60328   0.99748   0.38085   1.000
    O78     O    0.91194   0.48566   0.39518   1.000
    O79     O    0.41199   0.48565   0.39519   1.000
    O80     O    0.16208   0.01438   0.60479   1.000
    O81     O    0.66173   0.01432   0.60496   1.000
    O82     O    0.35488   0.50239   0.62021   1.000
    O83     O    0.85488   0.50241   0.62024   1.000
    O84     O    0.12805   0.01386   0.65338   1.000
    O85     O    0.62778   0.01385   0.65357   1.000
    O86     O    0.84393   0.56397   0.64977   1.000
    O87     O    0.34393   0.56395   0.64977   1.000
    O88     O    0.80746   0.56162   0.71696   1.000
    O89     O    0.30747   0.56161   0.71696   1.000
    O90     O    0.17023   0.02783   0.71379   1.000
    O91     O    0.67008   0.02785   0.71389   1.000
    O92     O    0.19258   0.06134   0.78317   1.000
    O93     O    0.69255   0.06135   0.78320   1.000
    O94     O    0.83004   0.52783   0.78624   1.000
    O95     O    0.33006   0.52784   0.78624   1.000
    O96     O    0.87232   0.51429   0.84661   1.000
    O97     O    0.37235   0.51429   0.84661   1.000
    O98     O    0.15652   0.06378   0.85074   1.000
    O99     O    0.65651   0.06379   0.85074   1.000
    O100    O    0.64682   0.00262   0.88114   1.000
    O101    O    0.14683   0.00262   0.88111   1.000
    O102    O    0.33849   0.51603   0.89525   1.000
    O103    O    0.83846   0.51602   0.89523   1.000
    N104    N    0.99903   0.78925   0.77065   1.000
    O105    O    0.12507   0.68894   0.77144   1.000
    O106    O    0.87342   0.88608   0.75572   1.000
    N107    N    0.74876   0.71088   0.22939   1.000
    O108    O    0.87489   0.81116   0.22863   1.000
    O109    O    0.62323   0.61401   0.24434   1.000
    N110    N    0.66338   0.09475   0.01128   1.000
    O111    O    0.65897   0.04834   0.05702   1.000
    O112    O    0.64369   0.08257   0.95668   1.000
    N113    N    0.33696   0.59451   0.48918   1.000
    O114    O    0.34131   0.54822   0.44337   1.000
    O115    O    0.35689   0.58236   0.54390   1.000
    N116    N    0.91307   0.40576   0.98864   1.000
    O117    O    0.90883   0.45229   0.94308   1.000
    O118    O    0.89315   0.41781   0.04286   1.000
    N119    N    0.25113   0.21095   0.27070   1.000
    O120    O    0.12504   0.31124   0.27145   1.000
    O121    O    0.37666   0.11402   0.25577   1.000
    N122    N    0.49903   0.78924   0.77066   1.000
    O123    O    0.62507   0.68893   0.77144   1.000
    O124    O    0.37345   0.88607   0.75572   1.000
    N125    N    0.83692   0.59456   0.48918   1.000
    O126    O    0.84127   0.54825   0.44337   1.000
    O127    O    0.85686   0.58240   0.54389   1.000
    N128    N    0.41309   0.40577   0.98844   1.000
    O129    O    0.39318   0.41781   0.04350   1.000
    O130    O    0.40885   0.45230   0.94299   1.000
    N131    N    0.50137   0.28908   0.72936   1.000
    O132    O    0.37521   0.18881   0.72866   1.000
    O133    O    0.62689   0.38601   0.74431   1.000
    N134    N    0.16343   0.09477   0.01125   1.000
    O135    O    0.14372   0.08258   0.95667   1.000
    O136    O    0.15904   0.04837   0.05699   1.000
    N137    N    0.24878   0.71085   0.22937   1.000
    O138    O    0.37489   0.81114   0.22866   1.000
    O139    O    0.12322   0.61400   0.24434   1.000
    N140    N    0.00136   0.28907   0.72937   1.000
    O141    O    0.87519   0.18880   0.72867   1.000
    O142    O    0.12689   0.38600   0.74431   1.000
    N143    N    0.75118   0.21085   0.27080   1.000
    O144    O    0.87675   0.11397   0.25579   1.000
    O145    O    0.62509   0.31117   0.27151   1.000
    N146    N    0.58659   0.90528   0.51118   1.000
    O147    O    0.59099   0.95162   0.55697   1.000
    O148    O    0.60632   0.91749   0.45661   1.000
    N149    N    0.08689   0.90541   0.51089   1.000
    O150    O    0.10683   0.91759   0.45616   1.000
    O151    O    0.09131   0.95174   0.55670   1.000
loop_
    _geom_bond_atom_site_label_1
    _geom_bond_atom_site_label_2
    _geom_bond_distance
    _geom_bond_site_symmetry_2
    _ccdc_geom_bond_type
    Zr29   O56       0.62264      .   S
    Zr11   O56       0.62264      .   S
    Zr28   O57       0.62265      .   S
    Zr10   O57       0.62265      .   S
    Zr49   O58       0.62128      .   S
    Zr21   O58       0.62128      .   S
    Zr48   O59       0.62129      .   S
    Zr20   O59       0.62129      .   S
    Zr10   O60       0.65209      .   S
    Zr30   O60       0.65209      .   S
    Zr11   O61       0.65208      .   S
    Zr31   O61       0.65208      .   S
    Zr20   O62       0.65131      .   S
    Zr50   O62       0.65131      .   S
    Zr21   O63       0.65124      .   S
    Zr51   O63       0.65124      .   S
    Zr51   O64       0.99570      .   S
    Zr7    O64       0.99570      .   S
    Zr50   O65       0.99555      .   S
    Zr6    O65       0.99555      .   S
    Zr30   O66       0.99408      .   S
    Zr2    O66       0.99408      .   S
    Zr31   O67       0.99405      .   S
    Zr3    O67       0.99405      .   S
    Zr2    O68       0.99567      .   S
    Zr34   O68       0.99567      .   S
    Zr3    O69       0.99575      .   S
    Zr35   O69       0.99575      .   S
    Zr6    O70       0.99418      .   S
    Zr46   O70       0.99418      .   S
    Zr7    O71       0.99420      .   S
    Zr47   O71       0.99420      .   S
    Zr46   O72       0.65213      .   S
    Zr18   O72       0.65213      .   S
    Zr47   O73       0.65205      .   S
    Zr19   O73       0.65205      .   S
    Zr34   O74       0.65125      .   S
    Zr12   O74       0.65125      .   S
    Zr35   O75       0.65145      .   S
    Zr13   O75       0.65145      .   S
    Zr12   O76       0.62144      .   S
    Zr32   O76       0.62144  1_545   S
    Zr13   O77       0.62083      .   S
    Zr33   O77       0.62083  1_545   S
    Zr19   O78       0.62271      .   S
    Zr45   O78       0.62271      .   S
    Zr18   O79       0.62269      .   S
    Zr44   O79       0.62269      .   S
    Zr36   O80       0.62295      .   S
    Zr14   O80       0.62295      .   S
    Zr37   O81       0.62263      .   S
    Zr15   O81       0.62263      .   S
    Zr40   O82       0.62140      .   S
    Zr16   O82       0.62140      .   S
    Zr41   O83       0.62130      .   S
    Zr17   O83       0.62130      .   S
    Zr14   O84       0.65210      .   S
    Zr38   O84       0.65210      .   S
    Zr15   O85       0.65208      .   S
    Zr39   O85       0.65208      .   S
    Zr17   O86       0.65132      .   S
    Zr43   O86       0.65132      .   S
    Zr16   O87       0.65130      .   S
    Zr42   O87       0.65130      .   S
    Zr43   O88       0.99544      .   S
    Zr5    O88       0.99544      .   S
    Zr42   O89       0.99536      .   S
    Zr4    O89       0.99536      .   S
    Zr38   O90       0.99408      .   S
    Zr0    O90       0.99408      .   S
    Zr39   O91       0.99407      .   S
    Zr1    O91       0.99407      .   S
    Zr0    O92       0.99580      .   S
    Zr26   O92       0.99580      .   S
    Zr1    O93       0.99579      .   S
    Zr27   O93       0.99579      .   S
    Zr5    O94       0.99450      .   S
    Zr55   O94       0.99450      .   S
    Zr4    O95       0.99455      .   S
    Zr54   O95       0.99455      .   S
    Zr55   O96       0.65202      .   S
    Zr23   O96       0.65202      .   S
    Zr54   O97       0.65202      .   S
    Zr22   O97       0.65202      .   S
    Zr26   O98       0.65143      .   S
    Zr8    O98       0.65143      .   S
    Zr27   O99       0.65095      .   S
    Zr9    O99       0.65095      .   S
    Zr9    O100      0.62157      .   S
    Zr25   O100      0.62157  1_565   S
    Zr8    O101      0.62141      .   S
    Zr24   O101      0.62141  1_565   S
    Zr22   O102      0.62259      .   S
    Zr52   O102      0.62259      .   S
    Zr23   O103      0.62234      .   S
    Zr53   O103      0.62234      .   S
    N104   O105      2.71797  1_655   S
    Zr4    O105      3.67118      .   S
    N104   O106      2.69712      .   S
    Zr1    O106      3.64682  1_545   S
    N107   O108      2.71801      .   S
    Zr2    O108      3.67110  1_455   S
    N107   O109      2.69553      .   S
    Zr6    O109      3.64460      .   S
    N110   O111      1.15911      .   S
    Zr11   O111      1.70856  1_565   S
    N110   O112      1.14964  1_554   S
    Zr9    O112      1.70120      .   S
    N113   O114      1.15862      .   S
    Zr18   O114      1.70829      .   S
    N113   O115      1.15325      .   S
    Zr16   O115      1.70567      .   S
    N116   O117      1.15748      .   S
    Zr23   O117      1.70741      .   S
    N116   O118      1.14342  1_556   S
    Zr21   O118      1.72354      .   S
    N119   O120      2.71836      .   S
    Zr7    O120      3.67152  1_655   S
    N119   O121      2.69675      .   S
    Zr3    O121      3.64650  1_565   S
    N122   O123      2.71778      .   S
    Zr5    O123      3.67093      .   S
    N122   O124      2.69680      .   S
    Zr0    O124      3.64635  1_545   S
    N125   O126      1.15879      .   S
    Zr19   O126      1.70857      .   S
    N125   O127      1.15323      .   S
    Zr17   O127      1.70567      .   S
    N128   O129      1.15911  1_556   S
    Zr20   O129      1.71163      .   S
    N128   O130      1.15569      .   S
    Zr22   O130      1.70605      .   S
    N131   O132      2.71819      .   S
    Zr0    O132      3.67074      .   S
    N131   O133      2.69571      .   S
    Zr5    O133      3.64476      .   S
    N134   O135      1.14947  1_554   S
    Zr8    O135      1.70045      .   S
    N134   O136      1.15910      .   S
    Zr10   O136      1.70856  1_565   S
    N137   O138      2.71771      .   S
    Zr3    O138      3.67014      .   S
    N137   O139      2.69581      .   S
    Zr7    O139      3.64502  1_655   S
    N140   O141      2.71853  1_455   S
    Zr1    O141      3.67120      .   S
    N140   O142      2.69589      .   S
    Zr4    O142      3.64496      .   S
    N143   O144      2.69703      .   S
    Zr2    O144      3.64661  1_465   S
    N143   O145      2.71886      .   S
    Zr6    O145      3.67199      .   S
    N146   O147      1.15879      .   S
    Zr15   O147      1.70823  1_545   S
    N146   O148      1.14951      .   S
    Zr13   O148      1.70051      .   S
    N149   O150      1.15354      .   S
    Zr12   O150      1.70609      .   S
    N149   O151      1.15895      .   S
    Zr14   O151      1.70884  1_545   S
