# CIF file generated by openbabel 2.4.90, see http://openbabel.sf.net
data_I
_chemical_name_common ''
_cell_length_a 17.665
_cell_length_b 15.53
_cell_length_c 19.77
_cell_angle_alpha 90.028
_cell_angle_beta 89.996
_cell_angle_gamma 90.022
_space_group_name_H-M_alt 'P 1'
_space_group_name_Hall 'P 1'
loop_
    _symmetry_equiv_pos_as_xyz
    x,y,z
loop_
    _atom_site_label
    _atom_site_type_symbol
    _atom_site_fract_x
    _atom_site_fract_y
    _atom_site_fract_z
    _atom_site_occupancy
    C0      C    0.21637   0.03725   0.74161   1.000
    C1      C    0.71630   0.03725   0.74162   1.000
    C2      C    0.03379   0.96270   0.24153   1.000
    C3      C    0.53368   0.96273   0.24162   1.000
    C4      C    0.28385   0.53736   0.75851   1.000
    C5      C    0.78383   0.53736   0.75851   1.000
    C6      C    0.46625   0.46272   0.25850   1.000
    C7      C    0.96620   0.46274   0.25851   1.000
    C8      C    0.02529   0.14320   0.85225   1.000
    C9      C    0.52529   0.14320   0.85227   1.000
    C10     C    0.45561   0.24015   0.93450   1.000
    C11     C    0.95560   0.24014   0.93454   1.000
    C12     C    0.00343   0.24921   0.05255   1.000
    C13     C    0.50339   0.24921   0.05257   1.000
    C14     C    0.26048   0.94857   0.15766   1.000
    C15     C    0.76038   0.94852   0.15771   1.000
    C16     C    0.38157   0.97680   0.09311   1.000
    C17     C    0.88148   0.97672   0.09310   1.000
    C18     C    0.37289   0.05642   0.98350   1.000
    C19     C    0.87284   0.05637   0.98359   1.000
    C20     C    0.25550   0.14574   0.60824   1.000
    C21     C    0.75544   0.14570   0.60825   1.000
    C22     C    0.34032   0.29933   0.61611   1.000
    C23     C    0.84029   0.29929   0.61610   1.000
    C24     C    0.34565   0.23629   0.85595   1.000
    C25     C    0.84564   0.23628   0.85594   1.000
    C26     C    0.28891   0.14173   0.85191   1.000
    C27     C    0.78890   0.14172   0.85191   1.000
    C28     C    0.38778   0.13553   0.83635   1.000
    C29     C    0.88777   0.13552   0.83634   1.000
    C30     C    0.39119   0.38270   0.71057   1.000
    C31     C    0.89117   0.38268   0.71054   1.000
    C32     C    0.37298   0.34998   0.79454   1.000
    C33     C    0.87295   0.34996   0.79450   1.000
    C34     C    0.48421   0.24957   0.79097   1.000
    C35     C    0.98419   0.24957   0.79097   1.000
    C36     C    0.00793   0.35882   0.78166   1.000
    C37     C    0.50794   0.35882   0.78167   1.000
    C38     C    0.49183   0.23146   0.66270   1.000
    C39     C    0.99183   0.23145   0.66275   1.000
    C40     C    0.02088   0.33961   0.65637   1.000
    C41     C    0.52087   0.33961   0.65630   1.000
    C42     C    0.13024   0.23756   0.65216   1.000
    C43     C    0.63021   0.23756   0.65215   1.000
    C44     C    0.10436   0.19275   0.73062   1.000
    C45     C    0.60434   0.19274   0.73061   1.000
    C46     C    0.15518   0.25297   0.83447   1.000
    C47     C    0.65517   0.25296   0.83446   1.000
    C48     C    0.24204   0.39866   0.86498   1.000
    C49     C    0.74202   0.39866   0.86498   1.000
    C50     C    0.22326   0.45348   0.62433   1.000
    C51     C    0.72324   0.45348   0.62433   1.000
    C52     C    0.16450   0.36414   0.60555   1.000
    C53     C    0.66448   0.36414   0.60554   1.000
    C54     C    0.12298   0.46111   0.63500   1.000
    C55     C    0.62297   0.46112   0.63500   1.000
    C56     C    0.22551   0.85681   0.35200   1.000
    C57     C    0.72485   0.85705   0.35216   1.000
    C58     C    0.29455   0.75958   0.43438   1.000
    C59     C    0.79439   0.75992   0.43432   1.000
    C60     C    0.24619   0.75057   0.55221   1.000
    C61     C    0.74639   0.75056   0.55223   1.000
    C62     C    0.48956   0.05125   0.65784   1.000
    C63     C    0.98983   0.05089   0.65770   1.000
    C64     C    0.36847   0.02325   0.59322   1.000
    C65     C    0.86876   0.02310   0.59304   1.000
    C66     C    0.37716   0.94395   0.48342   1.000
    C67     C    0.87755   0.94470   0.48285   1.000
    C68     C    0.49461   0.85398   0.10821   1.000
    C69     C    0.99457   0.85396   0.10816   1.000
    C70     C    0.40985   0.70036   0.11618   1.000
    C71     C    0.90984   0.70032   0.11618   1.000
    C72     C    0.40434   0.76401   0.35598   1.000
    C73     C    0.90431   0.76408   0.35594   1.000
    C74     C    0.46121   0.85845   0.35187   1.000
    C75     C    0.96112   0.85857   0.35183   1.000
    C76     C    0.36236   0.86480   0.33630   1.000
    C77     C    0.86225   0.86482   0.33624   1.000
    C78     C    0.35902   0.61717   0.21069   1.000
    C79     C    0.85898   0.61720   0.21071   1.000
    C80     C    0.37717   0.65015   0.29465   1.000
    C81     C    0.87716   0.65020   0.29465   1.000
    C82     C    0.26587   0.75039   0.29000   1.000
    C83     C    0.76585   0.75045   0.29101   1.000
    C84     C    0.24219   0.64112   0.28170   1.000
    C85     C    0.74218   0.64117   0.28172   1.000
    C86     C    0.25837   0.76826   0.16275   1.000
    C87     C    0.75836   0.76829   0.16276   1.000
    C88     C    0.22931   0.66011   0.15641   1.000
    C89     C    0.72930   0.66014   0.15643   1.000
    C90     C    0.11999   0.76218   0.15210   1.000
    C91     C    0.61997   0.76220   0.15210   1.000
    C92     C    0.14584   0.80719   0.23054   1.000
    C93     C    0.64581   0.80721   0.23054   1.000
    C94     C    0.09490   0.74731   0.33441   1.000
    C95     C    0.59491   0.74730   0.33440   1.000
    C96     C    0.00809   0.60163   0.36505   1.000
    C97     C    0.50811   0.60161   0.36506   1.000
    C98     C    0.02720   0.54575   0.12457   1.000
    C99     C    0.52720   0.54577   0.12457   1.000
    C100    C    0.08543   0.63541   0.10555   1.000
    C101    C    0.58543   0.63542   0.10555   1.000
    C102    C    0.12752   0.53888   0.13522   1.000
    C103    C    0.62752   0.53889   0.13522   1.000
    C104    C    0.47566   0.64314   0.64802   1.000
    C105    C    0.97564   0.64320   0.64800   1.000
    C106    C    0.04477   0.74036   0.56550   1.000
    C107    C    0.54480   0.74026   0.56560   1.000
    C108    C    0.49641   0.74928   0.44779   1.000
    C109    C    0.99634   0.74936   0.44777   1.000
    C110    C    0.23973   0.44909   0.34238   1.000
    C111    C    0.73968   0.44910   0.34240   1.000
    C112    C    0.11871   0.47683   0.40717   1.000
    C113    C    0.61867   0.47684   0.40720   1.000
    C114    C    0.12761   0.55516   0.51730   1.000
    C115    C    0.62759   0.55519   0.51740   1.000
    C116    C    0.24480   0.64599   0.89190   1.000
    C117    C    0.74479   0.64600   0.89195   1.000
    C118    C    0.16025   0.79972   0.88409   1.000
    C119    C    0.66024   0.79972   0.88409   1.000
    C120    C    0.15436   0.73615   0.64429   1.000
    C121    C    0.65436   0.73613   0.64428   1.000
    C122    C    0.21130   0.64180   0.64831   1.000
    C123    C    0.71128   0.64177   0.64831   1.000
    C124    C    0.11246   0.63527   0.66394   1.000
    C125    C    0.61244   0.63527   0.66394   1.000
    C126    C    0.10930   0.88288   0.78984   1.000
    C127    C    0.60930   0.88288   0.78982   1.000
    C128    C    0.12765   0.85030   0.70580   1.000
    C129    C    0.62764   0.85027   0.70581   1.000
    C130    C    0.01631   0.75003   0.70895   1.000
    C131    C    0.51629   0.75003   0.70895   1.000
    C132    C    0.49264   0.85925   0.71851   1.000
    C133    C    0.99263   0.85925   0.71851   1.000
    C134    C    0.00843   0.73155   0.83713   1.000
    C135    C    0.50844   0.73156   0.83713   1.000
    C136    C    0.47939   0.83967   0.84372   1.000
    C137    C    0.97937   0.83967   0.84372   1.000
    C138    C    0.37004   0.73753   0.84753   1.000
    C139    C    0.87001   0.73754   0.84752   1.000
    C140    C    0.39606   0.69293   0.76901   1.000
    C141    C    0.89603   0.69295   0.76899   1.000
    C142    C    0.34492   0.75289   0.66539   1.000
    C143    C    0.84489   0.75292   0.66530   1.000
    C144    C    0.25809   0.89856   0.63501   1.000
    C145    C    0.75804   0.89858   0.63501   1.000
    C146    C    0.27756   0.95347   0.87575   1.000
    C147    C    0.77755   0.95348   0.87576   1.000
    C148    C    0.33698   0.86468   0.89422   1.000
    C149    C    0.83696   0.86469   0.89422   1.000
    C150    C    0.37774   0.96191   0.86441   1.000
    C151    C    0.87772   0.96192   0.86441   1.000
    C152    C    0.27475   0.35644   0.14790   1.000
    C153    C    0.77472   0.35642   0.14790   1.000
    C154    C    0.20532   0.25984   0.06529   1.000
    C155    C    0.70529   0.25982   0.06520   1.000
    C156    C    0.25306   0.25190   0.94720   1.000
    C157    C    0.75304   0.25188   0.94700   1.000
    C158    C    0.01073   0.55127   0.84251   1.000
    C159    C    0.51074   0.55128   0.84251   1.000
    C160    C    0.13158   0.52313   0.90740   1.000
    C161    C    0.63158   0.52314   0.90739   1.000
    C162    C    0.12234   0.44461   0.01746   1.000
    C163    C    0.62235   0.44462   0.01745   1.000
    C164    C    0.00543   0.35437   0.39194   1.000
    C165    C    0.50529   0.35441   0.39197   1.000
    C166    C    0.09011   0.20074   0.38403   1.000
    C167    C    0.58983   0.20068   0.38420   1.000
    C168    C    0.09573   0.26394   0.14422   1.000
    C169    C    0.59580   0.26376   0.14436   1.000
    C170    C    0.03884   0.35834   0.14825   1.000
    C171    C    0.53893   0.35818   0.14830   1.000
    C172    C    0.13769   0.36480   0.16389   1.000
    C173    C    0.63778   0.36462   0.16401   1.000
    C174    C    0.14084   0.11735   0.28956   1.000
    C175    C    0.64080   0.11728   0.28994   1.000
    C176    C    0.12261   0.15012   0.20560   1.000
    C177    C    0.62254   0.14980   0.20594   1.000
    C178    C    0.23400   0.25031   0.20900   1.000
    C179    C    0.73390   0.25009   0.20921   1.000
    C180    C    0.25759   0.14106   0.21843   1.000
    C181    C    0.75749   0.14085   0.21861   1.000
    C182    C    0.24166   0.26858   0.33725   1.000
    C183    C    0.74174   0.26839   0.33743   1.000
    C184    C    0.27063   0.16043   0.34368   1.000
    C185    C    0.77077   0.16026   0.34383   1.000
    C186    C    0.38004   0.26252   0.34778   1.000
    C187    C    0.88012   0.26240   0.34783   1.000
    C188    C    0.35416   0.30720   0.26928   1.000
    C189    C    0.85414   0.30709   0.26930   1.000
    C190    C    0.40518   0.24707   0.16550   1.000
    C191    C    0.90492   0.24691   0.16555   1.000
    C192    C    0.49195   0.10132   0.13513   1.000
    C193    C    0.99181   0.10128   0.13502   1.000
    C194    C    0.47271   0.04687   0.37591   1.000
    C195    C    0.97323   0.04670   0.37573   1.000
    C196    C    0.41327   0.13567   0.39430   1.000
    C197    C    0.91417   0.13575   0.39447   1.000
    C198    C    0.37251   0.03835   0.36468   1.000
    C199    C    0.87300   0.03857   0.36496   1.000
    C200    C    0.14424   0.04213   0.87673   1.000
    C201    C    0.64423   0.04213   0.87670   1.000
    C202    C    0.10379   0.09867   0.92744   1.000
    C203    C    0.60377   0.09866   0.92747   1.000
    C204    C    0.04202   0.14749   0.90525   1.000
    C205    C    0.54201   0.14749   0.90526   1.000
    C206    C    0.00373   0.20095   0.95015   1.000
    C207    C    0.50371   0.20096   0.95016   1.000
    C208    C    0.02998   0.20525   0.01659   1.000
    C209    C    0.52995   0.20525   0.01661   1.000
    C210    C    0.12452   0.10552   0.99603   1.000
    C211    C    0.62448   0.10551   0.99606   1.000
    C212    C    0.19252   0.06065   0.02357   1.000
    C213    C    0.69246   0.06063   0.02361   1.000
    C214    C    0.19094   0.01328   0.08450   1.000
    C215    C    0.69086   0.01325   0.08454   1.000
    C216    C    0.26022   0.98364   0.10992   1.000
    C217    C    0.76013   0.98359   0.10997   1.000
    C218    C    0.32694   0.99890   0.07435   1.000
    C219    C    0.82686   0.99885   0.07441   1.000
    C220    C    0.32204   0.04360   0.01336   1.000
    C221    C    0.82198   0.04355   0.01342   1.000
    C222    C    0.11837   0.99065   0.12095   1.000
    C223    C    0.61826   0.99062   0.12096   1.000
    C224    C    0.28429   0.17651   0.65027   1.000
    C225    C    0.78426   0.17648   0.65026   1.000
    C226    C    0.32652   0.25039   0.65320   1.000
    C227    C    0.82649   0.25035   0.65319   1.000
    C228    C    0.32254   0.19046   0.75579   1.000
    C229    C    0.82252   0.19044   0.75579   1.000
    C230    C    0.33695   0.17540   0.82876   1.000
    C231    C    0.83694   0.17539   0.82875   1.000
    C232    C    0.39725   0.32902   0.74626   1.000
    C233    C    0.89722   0.32900   0.74624   1.000
    C234    C    0.48028   0.30441   0.75587   1.000
    C235    C    0.98026   0.30440   0.75586   1.000
    C236    C    0.02173   0.28315   0.69009   1.000
    C237    C    0.52172   0.28316   0.69009   1.000
    C238    C    0.10313   0.25233   0.70070   1.000
    C239    C    0.60311   0.25233   0.70077   1.000
    C240    C    0.17141   0.30831   0.80443   1.000
    C241    C    0.67141   0.30830   0.80442   1.000
    C242    C    0.21456   0.37922   0.81838   1.000
    C243    C    0.71455   0.37921   0.81830   1.000
    C244    C    0.18170   0.38835   0.71101   1.000
    C245    C    0.68169   0.38834   0.71100   1.000
    C246    C    0.17240   0.41848   0.64035   1.000
    C247    C    0.67239   0.41848   0.64035   1.000
    C248    C    0.10674   0.95796   0.37592   1.000
    C249    C    0.60583   0.95795   0.37670   1.000
    C250    C    0.14679   0.90158   0.42695   1.000
    C251    C    0.64627   0.90144   0.42738   1.000
    C252    C    0.20854   0.85257   0.40493   1.000
    C253    C    0.70805   0.85265   0.40513   1.000
    C254    C    0.24650   0.79894   0.44980   1.000
    C255    C    0.74628   0.79910   0.44996   1.000
    C256    C    0.21995   0.79471   0.51622   1.000
    C257    C    0.71993   0.79466   0.51635   1.000
    C258    C    0.12581   0.89485   0.49548   1.000
    C259    C    0.62547   0.89450   0.49590   1.000
    C260    C    0.05790   0.93993   0.52301   1.000
    C261    C    0.55751   0.93943   0.52351   1.000
    C262    C    0.05945   0.98684   0.58422   1.000
    C263    C    0.55910   0.98664   0.58455   1.000
    C264    C    0.48983   0.01632   0.61000   1.000
    C265    C    0.99013   0.01625   0.60979   1.000
    C266    C    0.42310   0.00115   0.57442   1.000
    C267    C    0.92341   0.00124   0.57412   1.000
    C268    C    0.42800   0.95662   0.51331   1.000
    C269    C    0.92837   0.95720   0.51281   1.000
    C270    C    0.13202   0.00932   0.62078   1.000
    C271    C    0.63170   0.00926   0.62097   1.000
    C272    C    0.46581   0.82330   0.15025   1.000
    C273    C    0.96576   0.82331   0.15021   1.000
    C274    C    0.42362   0.74940   0.15323   1.000
    C275    C    0.92360   0.74939   0.15321   1.000
    C276    C    0.42754   0.80957   0.25579   1.000
    C277    C    0.92749   0.80963   0.25574   1.000
    C278    C    0.41312   0.82481   0.32874   1.000
    C279    C    0.91306   0.82489   0.32869   1.000
    C280    C    0.35291   0.67094   0.24634   1.000
    C281    C    0.85288   0.67098   0.24630   1.000
    C282    C    0.26985   0.69551   0.25590   1.000
    C283    C    0.76983   0.69556   0.25592   1.000
    C284    C    0.22846   0.71663   0.19010   1.000
    C285    C    0.72844   0.71666   0.19012   1.000
    C286    C    0.14707   0.74753   0.20074   1.000
    C287    C    0.64705   0.74756   0.20074   1.000
    C288    C    0.07870   0.69187   0.30442   1.000
    C289    C    0.57870   0.69187   0.30443   1.000
    C290    C    0.03554   0.62101   0.31840   1.000
    C291    C    0.53556   0.62100   0.31844   1.000
    C292    C    0.06846   0.61157   0.21108   1.000
    C293    C    0.56846   0.61158   0.21100   1.000
    C294    C    0.07787   0.58119   0.14048   1.000
    C295    C    0.57787   0.58120   0.14040   1.000
    C296    C    0.35677   0.54204   0.62413   1.000
    C297    C    0.85677   0.54206   0.62412   1.000
    C298    C    0.39687   0.59838   0.57309   1.000
    C299    C    0.89685   0.59843   0.57308   1.000
    C300    C    0.45867   0.64737   0.59509   1.000
    C301    C    0.95865   0.64743   0.59508   1.000
    C302    C    0.49671   0.70093   0.55011   1.000
    C303    C    0.99665   0.70102   0.55010   1.000
    C304    C    0.47014   0.70517   0.48378   1.000
    C305    C    0.97007   0.70526   0.48377   1.000
    C306    C    0.37587   0.60512   0.50458   1.000
    C307    C    0.87584   0.60516   0.50457   1.000
    C308    C    0.30792   0.56002   0.47709   1.000
    C309    C    0.80789   0.56005   0.47709   1.000
    C310    C    0.30940   0.51315   0.41586   1.000
    C311    C    0.80936   0.51317   0.41587   1.000
    C312    C    0.24007   0.48370   0.39035   1.000
    C313    C    0.74003   0.48372   0.39037   1.000
    C314    C    0.17338   0.49870   0.42605   1.000
    C315    C    0.67334   0.49872   0.42607   1.000
    C316    C    0.17840   0.54271   0.48737   1.000
    C317    C    0.67837   0.54273   0.48739   1.000
    C318    C    0.38191   0.49070   0.37926   1.000
    C319    C    0.88186   0.49070   0.37925   1.000
    C320    C    0.21596   0.67672   0.84996   1.000
    C321    C    0.71595   0.67673   0.84996   1.000
    C322    C    0.17389   0.75066   0.84702   1.000
    C323    C    0.67388   0.75066   0.84702   1.000
    C324    C    0.17767   0.69053   0.74440   1.000
    C325    C    0.67766   0.69052   0.74444   1.000
    C326    C    0.16320   0.67534   0.67149   1.000
    C327    C    0.66319   0.67533   0.67149   1.000
    C328    C    0.10325   0.82927   0.75403   1.000
    C329    C    0.60324   0.82926   0.75402   1.000
    C330    C    0.02021   0.80475   0.74421   1.000
    C331    C    0.52019   0.80474   0.74421   1.000
    C332    C    0.47862   0.78330   0.80980   1.000
    C333    C    0.97860   0.78331   0.80986   1.000
    C334    C    0.39725   0.75243   0.79899   1.000
    C335    C    0.89723   0.75245   0.79898   1.000
    C336    C    0.32879   0.80828   0.69545   1.000
    C337    C    0.82877   0.80831   0.69544   1.000
    C338    C    0.28563   0.87914   0.68156   1.000
    C339    C    0.78560   0.87917   0.68156   1.000
    C340    C    0.31885   0.88852   0.78880   1.000
    C341    C    0.81882   0.88854   0.78885   1.000
    C342    C    0.32851   0.91887   0.85944   1.000
    C343    C    0.82849   0.91888   0.85943   1.000
    C344    C    0.39333   0.45798   0.12414   1.000
    C345    C    0.89328   0.45798   0.12414   1.000
    C346    C    0.35322   0.40174   0.07299   1.000
    C347    C    0.85318   0.40174   0.07000   1.000
    C348    C    0.29152   0.35258   0.09495   1.000
    C349    C    0.79149   0.35256   0.09495   1.000
    C350    C    0.25332   0.29932   0.04983   1.000
    C351    C    0.75329   0.29930   0.04980   1.000
    C352    C    0.27955   0.29566   0.98336   1.000
    C353    C    0.77953   0.29565   0.98335   1.000
    C354    C    0.37402   0.39544   0.00000   1.000
    C355    C    0.87399   0.39543   0.00000   1.000
    C356    C    0.44208   0.44040   0.97000   1.000
    C357    C    0.94205   0.44040   0.97700   1.000
    C358    C    0.44081   0.48738   0.91585   1.000
    C359    C    0.94078   0.48738   0.91580   1.000
    C360    C    0.01023   0.51660   0.89043   1.000
    C361    C    0.51024   0.51660   0.89043   1.000
    C362    C    0.07684   0.50136   0.92618   1.000
    C363    C    0.57684   0.50137   0.92617   1.000
    C364    C    0.07162   0.45726   0.98741   1.000
    C365    C    0.57163   0.45727   0.98740   1.000
    C366    C    0.36843   0.51028   0.87925   1.000
    C367    C    0.86840   0.51027   0.87925   1.000
    C368    C    0.03421   0.32360   0.34991   1.000
    C369    C    0.53411   0.32359   0.34999   1.000
    C370    C    0.07634   0.24969   0.34696   1.000
    C371    C    0.57620   0.24965   0.34711   1.000
    C372    C    0.07245   0.30967   0.24438   1.000
    C373    C    0.57248   0.30957   0.24450   1.000
    C374    C    0.08691   0.32479   0.17143   1.000
    C375    C    0.58699   0.32462   0.17155   1.000
    C376    C    0.14695   0.17103   0.25387   1.000
    C377    C    0.64690   0.17087   0.25416   1.000
    C378    C    0.23001   0.19554   0.24419   1.000
    C379    C    0.72997   0.19534   0.24439   1.000
    C380    C    0.27149   0.21685   0.30993   1.000
    C381    C    0.77156   0.21668   0.31007   1.000
    C382    C    0.35289   0.24767   0.29919   1.000
    C383    C    0.85294   0.24755   0.29926   1.000
    C384    C    0.42131   0.19171   0.19561   1.000
    C385    C    0.92119   0.19160   0.19559   1.000
    C386    C    0.46443   0.12080   0.18170   1.000
    C387    C    0.96436   0.12076   0.18163   1.000
    C388    C    0.43130   0.11159   0.28902   1.000
    C389    C    0.93154   0.11160   0.28902   1.000
    C390    C    0.42172   0.08139   0.35963   1.000
    C391    C    0.92228   0.08145   0.35967   1.000
    C392    C    0.28176   0.13982   0.71431   1.000
    C393    C    0.78173   0.13979   0.71431   1.000
    C394    C    0.35040   0.25845   0.71979   1.000
    C395    C    0.85039   0.25842   0.71978   1.000
    C396    C    0.22101   0.42850   0.76000   1.000
    C397    C    0.72100   0.42849   0.76000   1.000
    C398    C    0.15094   0.31463   0.73684   1.000
    C399    C    0.65094   0.31462   0.73683   1.000
    C400    C    0.25677   0.07441   0.98826   1.000
    C401    C    0.75672   0.07438   0.98832   1.000
    C402    C    0.08897   0.15919   0.03950   1.000
    C403    C    0.58892   0.15917   0.03950   1.000
    C404    C    0.46831   0.86014   0.21427   1.000
    C405    C    0.96825   0.86019   0.21421   1.000
    C406    C    0.39972   0.74148   0.21983   1.000
    C407    C    0.89969   0.74151   0.21981   1.000
    C408    C    0.02911   0.57157   0.26009   1.000
    C409    C    0.52913   0.57156   0.26010   1.000
    C410    C    0.09922   0.68536   0.23684   1.000
    C411    C    0.59921   0.68537   0.23685   1.000
    C412    C    0.49327   0.92582   0.48817   1.000
    C413    C    0.99367   0.92661   0.48756   1.000
    C414    C    0.16106   0.84104   0.53901   1.000
    C415    C    0.66095   0.84072   0.53932   1.000
    C416    C    0.21838   0.63989   0.78593   1.000
    C417    C    0.71838   0.63989   0.78593   1.000
    C418    C    0.14995   0.75864   0.78044   1.000
    C419    C    0.64994   0.75863   0.78044   1.000
    C420    C    0.27937   0.92854   0.73994   1.000
    C421    C    0.77935   0.92856   0.73994   1.000
    C422    C    0.34949   0.81475   0.76299   1.000
    C423    C    0.84947   0.81477   0.76298   1.000
    C424    C    0.24373   0.57331   0.51258   1.000
    C425    C    0.74371   0.57335   0.51259   1.000
    C426    C    0.41117   0.65890   0.46103   1.000
    C427    C    0.91111   0.65897   0.46102   1.000
    C428    C    0.03172   0.36032   0.28588   1.000
    C429    C    0.53172   0.36028   0.28593   1.000
    C430    C    0.10023   0.24164   0.28036   1.000
    C431    C    0.60018   0.24154   0.28050   1.000
    C432    C    0.47071   0.07148   0.24007   1.000
    C433    C    0.97086   0.07150   0.24001   1.000
    C434    C    0.40067   0.18534   0.26316   1.000
    C435    C    0.90073   0.18526   0.26319   1.000
    C436    C    0.00619   0.42682   0.01252   1.000
    C437    C    0.50620   0.42682   0.01251   1.000
    C438    C    0.33845   0.34207   0.96065   1.000
    C439    C    0.83842   0.34206   0.96065   1.000
    C440    C    0.14941   0.96311   0.88550   1.000
    C441    C    0.64941   0.96311   0.88558   1.000
    C442    C    0.16880   0.08544   0.82474   1.000
    C443    C    0.66880   0.08545   0.82478   1.000
    C444    C    0.05829   0.98054   0.08897   1.000
    C445    C    0.55821   0.98047   0.08894   1.000
    C446    C    0.12627   0.98149   0.18614   1.000
    C447    C    0.62610   0.98154   0.18616   1.000
    C448    C    0.10297   0.03726   0.38371   1.000
    C449    C    0.60073   0.03700   0.38500   1.000
    C450    C    0.08104   0.91416   0.32462   1.000
    C451    C    0.58117   0.91457   0.32475   1.000
    C452    C    0.19214   0.01944   0.58880   1.000
    C453    C    0.69175   0.01937   0.58895   1.000
    C454    C    0.12408   0.01841   0.68598   1.000
    C455    C    0.62387   0.01845   0.68617   1.000
    C456    C    0.35299   0.46275   0.61630   1.000
    C457    C    0.85299   0.46277   0.61637   1.000
    C458    C    0.33109   0.58587   0.67542   1.000
    C459    C    0.83109   0.58587   0.67542   1.000
    C460    C    0.44206   0.48061   0.41113   1.000
    C461    C    0.94202   0.48062   0.41112   1.000
    C462    C    0.37390   0.48154   0.31407   1.000
    C463    C    0.87384   0.48155   0.31407   1.000
    C464    C    0.39708   0.53727   0.11646   1.000
    C465    C    0.89705   0.53727   0.11646   1.000
    C466    C    0.41897   0.41414   0.17540   1.000
    C467    C    0.91891   0.41414   0.17540   1.000
    C468    C    0.30856   0.52178   0.91125   1.000
    C469    C    0.80853   0.52177   0.91120   1.000
    C470    C    0.37627   0.51831   0.81397   1.000
    C471    C    0.87625   0.51831   0.81397   1.000
    O472    O    0.36362   0.39859   0.03649   1.000
    O473    O    0.35623   0.36876   0.98032   1.000
    O474    O    0.40805   0.41792   0.98500   1.000
    O475    O    0.86358   0.39858   0.03500   1.000
    O476    O    0.85620   0.36875   0.98032   1.000
    O477    O    0.90802   0.41792   0.98850   1.000
    O478    O    0.47414   0.43361   0.99125   1.000
    O479    O    0.53891   0.44204   0.99996   1.000
    O480    O    0.97412   0.43361   0.99476   1.000
    O481    O    0.03891   0.44204   0.99996   1.000
    O482    O    0.32449   0.02125   0.04385   1.000
    O483    O    0.34747   0.05001   0.99843   1.000
    O484    O    0.28940   0.05901   0.00081   1.000
    O485    O    0.82442   0.02120   0.04392   1.000
    O486    O    0.84741   0.04996   0.99850   1.000
    O487    O    0.78935   0.05897   0.00087   1.000
    O488    O    0.05948   0.18222   0.02805   1.000
    O489    O    0.01671   0.22723   0.03457   1.000
    O490    O    0.01685   0.20310   0.98337   1.000
    O491    O    0.55943   0.18221   0.02806   1.000
    O492    O    0.51667   0.22723   0.03459   1.000
    O493    O    0.51683   0.20310   0.98338   1.000
    O494    O    0.59699   0.45094   0.00243   1.000
    O495    O    0.09698   0.45094   0.00243   1.000
    O496    O    0.19173   0.03697   0.05404   1.000
    O497    O    0.22464   0.06753   0.00592   1.000
    O498    O    0.15852   0.08309   0.00980   1.000
    O499    O    0.69166   0.03694   0.05408   1.000
    O500    O    0.72459   0.06751   0.00596   1.000
    O501    O    0.65847   0.08307   0.00983   1.000
    O502    O    0.60670   0.13234   0.01778   1.000
    O503    O    0.10675   0.13236   0.01776   1.000
    O504    O    0.72929   0.27956   0.05750   1.000
    O505    O    0.77239   0.32593   0.07237   1.000
    O506    O    0.76641   0.29748   0.01657   1.000
    O507    O    0.22932   0.27958   0.05756   1.000
    O508    O    0.27242   0.32595   0.07239   1.000
    O509    O    0.26643   0.29749   0.01659   1.000
    O510    O    0.82234   0.37715   0.08248   1.000
    O511    O    0.87323   0.42986   0.09707   1.000
    O512    O    0.32237   0.37716   0.08397   1.000
    O513    O    0.37327   0.42986   0.09856   1.000
    O514    O    0.35425   0.98785   0.08373   1.000
    O515    O    0.29358   0.99127   0.09214   1.000
    O516    O    0.85417   0.98778   0.08375   1.000
    O517    O    0.79349   0.99122   0.09219   1.000
    O518    O    0.22558   0.99846   0.09721   1.000
    O519    O    0.15466   0.00197   0.10272   1.000
    O520    O    0.72549   0.99842   0.09726   1.000
    O521    O    0.65456   0.00194   0.10275   1.000
    O522    O    0.58824   0.98555   0.10495   1.000
    O523    O    0.08833   0.98559   0.10496   1.000
    O524    O    0.78310   0.35449   0.12143   1.000
    O525    O    0.28313   0.35451   0.12143   1.000
    O526    O    0.08165   0.60830   0.12301   1.000
    O527    O    0.58165   0.60831   0.12298   1.000
    O528    O    0.98017   0.83863   0.12918   1.000
    O529    O    0.48021   0.83864   0.12923   1.000
    O530    O    0.26035   0.96610   0.13379   1.000
    O531    O    0.76026   0.96605   0.13384   1.000
    O532    O    0.91672   0.72485   0.13469   1.000
    O533    O    0.41674   0.72488   0.13470   1.000
    O534    O    0.89517   0.49762   0.12030   1.000
    O535    O    0.39520   0.49763   0.12030   1.000
    O536    O    0.12232   0.98607   0.15355   1.000
    O537    O    0.62218   0.98608   0.15356   1.000
    O538    O    0.40615   0.43606   0.14977   1.000
    O539    O    0.90610   0.43606   0.14977   1.000
    O540    O    0.55253   0.56348   0.13248   1.000
    O541    O    0.05254   0.56347   0.13253   1.000
    O542    O    0.97808   0.11102   0.15832   1.000
    O543    O    0.47819   0.11106   0.15842   1.000
    O544    O    0.60269   0.56005   0.13781   1.000
    O545    O    0.10270   0.56004   0.13785   1.000
    O546    O    0.57317   0.59639   0.17570   1.000
    O547    O    0.07317   0.59638   0.17578   1.000
    O548    O    0.09132   0.29436   0.15782   1.000
    O549    O    0.59139   0.29419   0.15795   1.000
    O550    O    0.06288   0.34156   0.15984   1.000
    O551    O    0.56296   0.34140   0.15992   1.000
    O552    O    0.94468   0.78635   0.15171   1.000
    O553    O    0.96701   0.84175   0.18221   1.000
    O554    O    0.44471   0.78635   0.15174   1.000
    O555    O    0.46706   0.84172   0.18226   1.000
    O556    O    0.63351   0.75488   0.17642   1.000
    O557    O    0.13353   0.75485   0.17642   1.000
    O558    O    0.91164   0.74545   0.18651   1.000
    O559    O    0.41167   0.74544   0.18653   1.000
    O560    O    0.22888   0.68837   0.17325   1.000
    O561    O    0.72887   0.68840   0.17328   1.000
    O562    O    0.24342   0.74244   0.17642   1.000
    O563    O    0.74340   0.74248   0.17644   1.000
    O564    O    0.11230   0.34480   0.16766   1.000
    O565    O    0.61238   0.34462   0.16778   1.000
    O566    O    0.41324   0.21939   0.18055   1.000
    O567    O    0.91306   0.21926   0.18057   1.000
    O568    O    0.07968   0.31723   0.20790   1.000
    O569    O    0.57973   0.31709   0.20802   1.000
    O570    O    0.94256   0.43844   0.21696   1.000
    O571    O    0.44261   0.43843   0.21695   1.000
    O572    O    0.94277   0.15618   0.18861   1.000
    O573    O    0.96761   0.09613   0.21082   1.000
    O574    O    0.44287   0.15626   0.18866   1.000
    O575    O    0.46757   0.09614   0.21089   1.000
    O576    O    0.08003   0.97210   0.21384   1.000
    O577    O    0.57989   0.97213   0.21389   1.000
    O578    O    0.18777   0.73208   0.19542   1.000
    O579    O    0.24915   0.70607   0.22300   1.000
    O580    O    0.68775   0.73211   0.19543   1.000
    O581    O    0.74914   0.70611   0.22302   1.000
    O582    O    0.91096   0.18843   0.22939   1.000
    O583    O    0.41099   0.18852   0.22939   1.000
    O584    O    0.14646   0.77736   0.21564   1.000
    O585    O    0.12315   0.71644   0.21879   1.000
    O586    O    0.64643   0.77739   0.21564   1.000
    O587    O    0.62313   0.71646   0.21879   1.000
    O588    O    0.13478   0.16058   0.22973   1.000
    O589    O    0.63472   0.16034   0.23005   1.000
    O590    O    0.23200   0.22292   0.22659   1.000
    O591    O    0.73193   0.22271   0.22680   1.000
    O592    O    0.35596   0.64406   0.22851   1.000
    O593    O    0.85593   0.64409   0.22850   1.000
    O594    O    0.58384   0.64848   0.22392   1.000
    O595    O    0.54880   0.59157   0.23555   1.000
    O596    O    0.08384   0.64846   0.22396   1.000
    O597    O    0.04879   0.59157   0.23558   1.000
    O598    O    0.00102   0.91145   0.22787   1.000
    O599    O    0.94787   0.83491   0.23498   1.000
    O600    O    0.50100   0.91143   0.22794   1.000
    O601    O    0.44793   0.83485   0.23503   1.000
    O602    O    0.24380   0.16830   0.23131   1.000
    O603    O    0.74373   0.16809   0.23150   1.000
    O604    O    0.87629   0.70624   0.23305   1.000
    O605    O    0.91359   0.77557   0.23777   1.000
    O606    O    0.37631   0.70621   0.23309   1.000
    O607    O    0.41363   0.77552   0.23781   1.000
    O608    O    0.08896   0.68861   0.27063   1.000
    O609    O    0.58895   0.68862   0.27064   1.000
    O610    O    0.00233   0.01710   0.24077   1.000
    O611    O    0.95120   0.09155   0.26451   1.000
    O612    O    0.50220   0.01710   0.24085   1.000
    O613    O    0.45101   0.09153   0.26455   1.000
    O614    O    0.05741   0.93843   0.28307   1.000
    O615    O    0.55743   0.93865   0.28318   1.000
    O616    O    0.18848   0.18328   0.24903   1.000
    O617    O    0.25075   0.20619   0.27706   1.000
    O618    O    0.08634   0.27566   0.26237   1.000
    O619    O    0.05208   0.33500   0.26513   1.000
    O620    O    0.68843   0.18310   0.24927   1.000
    O621    O    0.75076   0.20601   0.27723   1.000
    O622    O    0.58633   0.27556   0.26250   1.000
    O623    O    0.55210   0.33492   0.26521   1.000
    O624    O    0.81136   0.68327   0.25111   1.000
    O625    O    0.86502   0.66059   0.27048   1.000
    O626    O    0.31138   0.68322   0.25112   1.000
    O627    O    0.36504   0.66055   0.27049   1.000
    O628    O    0.12359   0.20633   0.26711   1.000
    O629    O    0.14389   0.14419   0.27171   1.000
    O630    O    0.62354   0.20621   0.26733   1.000
    O631    O    0.64385   0.14407   0.27205   1.000
    O632    O    0.92027   0.81726   0.29222   1.000
    O633    O    0.42033   0.81719   0.29226   1.000
    O634    O    0.25602   0.66831   0.26880   1.000
    O635    O    0.26786   0.72295   0.27295   1.000
    O636    O    0.75600   0.66837   0.26882   1.000
    O637    O    0.76784   0.72300   0.27347   1.000
    O638    O    0.49769   0.51714   0.25930   1.000
    O639    O    0.49899   0.41150   0.27222   1.000
    O640    O    0.42008   0.47213   0.28629   1.000
    O641    O    0.99766   0.51715   0.25930   1.000
    O642    O    0.99896   0.41153   0.27220   1.000
    O643    O    0.92002   0.47214   0.28629   1.000
    O644    O    0.03232   0.59629   0.28924   1.000
    O645    O    0.53234   0.59628   0.28927   1.000
    O646    O    0.41598   0.14846   0.27609   1.000
    O647    O    0.37678   0.21650   0.28118   1.000
    O648    O    0.91614   0.14843   0.27610   1.000
    O649    O    0.87683   0.21640   0.28123   1.000
    O650    O    0.35352   0.27744   0.28424   1.000
    O651    O    0.85354   0.27732   0.28428   1.000
    O652    O    0.08829   0.24567   0.31366   1.000
    O653    O    0.58819   0.24560   0.31381   1.000
    O654    O    0.03296   0.34196   0.31790   1.000
    O655    O    0.53292   0.34193   0.31796   1.000
    O656    O    0.92691   0.09652   0.32434   1.000
    O657    O    0.42651   0.09649   0.32432   1.000
    O658    O    0.31219   0.23226   0.30456   1.000
    O659    O    0.36646   0.25509   0.32348   1.000
    O660    O    0.81225   0.23211   0.30467   1.000
    O661    O    0.86653   0.25498   0.32355   1.000
    O662    O    0.05712   0.65644   0.31141   1.000
    O663    O    0.08680   0.71959   0.31942   1.000
    O664    O    0.55713   0.65644   0.31143   1.000
    O665    O    0.58681   0.71958   0.31941   1.000
    O666    O    0.25658   0.24271   0.32359   1.000
    O667    O    0.27106   0.18864   0.32681   1.000
    O668    O    0.75665   0.24253   0.32375   1.000
    O669    O    0.77117   0.18847   0.32695   1.000
    O670    O    0.37791   0.48612   0.34666   1.000
    O671    O    0.87785   0.48612   0.34666   1.000
    O672    O    0.02182   0.61132   0.34172   1.000
    O673    O    0.52183   0.61130   0.34175   1.000
    O674    O    0.09389   0.93606   0.35027   1.000
    O675    O    0.59350   0.93626   0.35073   1.000
    O676    O    0.88765   0.84485   0.33246   1.000
    O677    O    0.93709   0.84173   0.34026   1.000
    O678    O    0.90868   0.79449   0.34231   1.000
    O679    O    0.38774   0.84480   0.33252   1.000
    O680    O    0.43717   0.84163   0.34031   1.000
    O681    O    0.40873   0.79441   0.34236   1.000
    O682    O    0.23990   0.46639   0.36636   1.000
    O683    O    0.73985   0.46641   0.36638   1.000
    O684    O    0.05528   0.28664   0.34844   1.000
    O685    O    0.08323   0.22521   0.36550   1.000
    O686    O    0.55516   0.28662   0.34855   1.000
    O687    O    0.58301   0.22517   0.36565   1.000
    O688    O    0.01982   0.33899   0.37093   1.000
    O689    O    0.51970   0.33900   0.37098   1.000
    O690    O    0.21703   0.85469   0.37846   1.000
    O691    O    0.71645   0.85485   0.37864   1.000
    O692    O    0.39712   0.05987   0.36216   1.000
    O693    O    0.44721   0.06413   0.36777   1.000
    O694    O    0.41749   0.10853   0.37696   1.000
    O695    O    0.89764   0.06001   0.36231   1.000
    O696    O    0.94776   0.06407   0.36770   1.000
    O697    O    0.91823   0.10860   0.37707   1.000
    O698    O    0.10485   0.99761   0.37981   1.000
    O699    O    0.12676   0.92977   0.40143   1.000
    O700    O    0.60328   0.99748   0.38085   1.000
    O701    O    0.62605   0.92970   0.40204   1.000
    O702    O    0.91194   0.48566   0.39518   1.000
    O703    O    0.84561   0.50194   0.39756   1.000
    O704    O    0.41199   0.48565   0.39519   1.000
    O705    O    0.34565   0.50193   0.39756   1.000
    O706    O    0.27473   0.49843   0.40310   1.000
    O707    O    0.20673   0.49120   0.40820   1.000
    O708    O    0.77469   0.49845   0.40312   1.000
    O709    O    0.70668   0.49122   0.40822   1.000
    O710    O    0.17767   0.87708   0.41594   1.000
    O711    O    0.22752   0.82575   0.42736   1.000
    O712    O    0.67716   0.87705   0.41625   1.000
    O713    O    0.72717   0.82587   0.42754   1.000
    O714    O    0.14604   0.48777   0.41661   1.000
    O715    O    0.64600   0.48778   0.41663   1.000
    O716    O    0.30866   0.53659   0.44648   1.000
    O717    O    0.80862   0.53661   0.44648   1.000
    O718    O    0.17589   0.52070   0.45671   1.000
    O719    O    0.67586   0.52073   0.45673   1.000
    O720    O    0.13630   0.89822   0.46121   1.000
    O721    O    0.63587   0.89797   0.46164   1.000
    O722    O    0.77034   0.77951   0.44214   1.000
    O723    O    0.27053   0.77926   0.44209   1.000
    O724    O    0.98321   0.72731   0.46577   1.000
    O725    O    0.48328   0.72722   0.46579   1.000
    O726    O    0.23323   0.79682   0.48301   1.000
    O727    O    0.73310   0.79688   0.48315   1.000
    O728    O    0.94059   0.68211   0.47239   1.000
    O729    O    0.89347   0.63206   0.48279   1.000
    O730    O    0.44065   0.68203   0.47240   1.000
    O731    O    0.39352   0.63201   0.48280   1.000
    O732    O    0.84186   0.58261   0.49083   1.000
    O733    O    0.77580   0.56670   0.49484   1.000
    O734    O    0.34189   0.58257   0.49084   1.000
    O735    O    0.27582   0.56666   0.49483   1.000
    O736    O    0.90296   0.95095   0.49783   1.000
    O737    O    0.40258   0.95029   0.49837   1.000
    O738    O    0.98336   0.70314   0.51693   1.000
    O739    O    0.48342   0.70305   0.51694   1.000
    O740    O    0.21107   0.55801   0.49998   1.000
    O741    O    0.15301   0.54893   0.50233   1.000
    O742    O    0.71104   0.55804   0.49999   1.000
    O743    O    0.65298   0.54896   0.50240   1.000
    O744    O    0.96102   0.94191   0.50018   1.000
    O745    O    0.02578   0.93327   0.50528   1.000
    O746    O    0.46063   0.94122   0.50074   1.000
    O747    O    0.52539   0.93262   0.50584   1.000
    O748    O    0.09185   0.91739   0.50924   1.000
    O749    O    0.14343   0.86794   0.51724   1.000
    O750    O    0.59149   0.91696   0.50971   1.000
    O751    O    0.64321   0.86761   0.51761   1.000
    O752    O    0.88634   0.60179   0.53882   1.000
    O753    O    0.38637   0.60175   0.53884   1.000
    O754    O    0.92589   0.97922   0.54346   1.000
    O755    O    0.42555   0.97889   0.54386   1.000
    O756    O    0.19051   0.81787   0.52762   1.000
    O757    O    0.23307   0.77264   0.53421   1.000
    O758    O    0.69044   0.81769   0.52783   1.000
    O759    O    0.73316   0.77261   0.53429   1.000
    O760    O    0.05868   0.96338   0.55361   1.000
    O761    O    0.55830   0.96304   0.55403   1.000
    O762    O    0.02071   0.72069   0.55780   1.000
    O763    O    0.97765   0.67423   0.57259   1.000
    O764    O    0.52076   0.72059   0.55785   1.000
    O765    O    0.47769   0.67415   0.57260   1.000
    O766    O    0.92775   0.62293   0.58408   1.000
    O767    O    0.87681   0.57024   0.59860   1.000
    O768    O    0.42777   0.62288   0.58409   1.000
    O769    O    0.37682   0.57021   0.59861   1.000
    O770    O    0.89609   0.01217   0.58358   1.000
    O771    O    0.95677   0.00875   0.59196   1.000
    O772    O    0.39579   0.01220   0.58382   1.000
    O773    O    0.45647   0.00873   0.59221   1.000
    O774    O    0.02479   0.00154   0.59701   1.000
    O775    O    0.09574   0.99808   0.60250   1.000
    O776    O    0.52447   0.00148   0.59728   1.000
    O777    O    0.59540   0.99795   0.60276   1.000
    O778    O    0.16208   0.01438   0.60479   1.000
    O779    O    0.66173   0.01432   0.60496   1.000
    O780    O    0.96715   0.64532   0.62154   1.000
    O781    O    0.46717   0.64526   0.62155   1.000
    O782    O    0.66843   0.39131   0.62294   1.000
    O783    O    0.16845   0.39131   0.62295   1.000
    O784    O    0.26990   0.16113   0.62926   1.000
    O785    O    0.76985   0.16109   0.62925   1.000
    O786    O    0.98998   0.03357   0.63375   1.000
    O787    O    0.48970   0.03378   0.63392   1.000
    O788    O    0.83339   0.27482   0.63465   1.000
    O789    O    0.33342   0.27486   0.63466   1.000
    O790    O    0.35488   0.50239   0.62021   1.000
    O791    O    0.85488   0.50241   0.62024   1.000
    O792    O    0.12805   0.01386   0.65338   1.000
    O793    O    0.62778   0.01385   0.65357   1.000
    O794    O    0.84393   0.56397   0.64977   1.000
    O795    O    0.34393   0.56395   0.64977   1.000
    O796    O    0.19783   0.43598   0.63234   1.000
    O797    O    0.69781   0.43598   0.63234   1.000
    O798    O    0.64768   0.43980   0.63767   1.000
    O799    O    0.14769   0.43979   0.63767   1.000
    O800    O    0.77182   0.88887   0.65829   1.000
    O801    O    0.27186   0.88885   0.65829   1.000
    O802    O    0.67704   0.40341   0.67567   1.000
    O803    O    0.17705   0.40341   0.67568   1.000
    O804    O    0.65878   0.70573   0.65788   1.000
    O805    O    0.15878   0.70574   0.65789   1.000
    O806    O    0.68723   0.65855   0.65990   1.000
    O807    O    0.18725   0.65857   0.65990   1.000
    O808    O    0.80538   0.21341   0.65172   1.000
    O809    O    0.78299   0.15813   0.68228   1.000
    O810    O    0.30541   0.21345   0.65174   1.000
    O811    O    0.28303   0.15817   0.68229   1.000
    O812    O    0.61666   0.24494   0.67646   1.000
    O813    O    0.11668   0.24494   0.67643   1.000
    O814    O    0.83844   0.25439   0.68649   1.000
    O815    O    0.33846   0.25442   0.68649   1.000
    O816    O    0.52129   0.31139   0.67319   1.000
    O817    O    0.02131   0.31138   0.67323   1.000
    O818    O    0.50678   0.25731   0.67639   1.000
    O819    O    0.00678   0.25730   0.67642   1.000
    O820    O    0.63781   0.65530   0.66772   1.000
    O821    O    0.13783   0.65530   0.66772   1.000
    O822    O    0.83683   0.78061   0.68037   1.000
    O823    O    0.33685   0.78058   0.68042   1.000
    O824    O    0.67042   0.68292   0.70796   1.000
    O825    O    0.17043   0.68293   0.70794   1.000
    O826    O    0.80746   0.56162   0.71696   1.000
    O827    O    0.30747   0.56161   0.71696   1.000
    O828    O    0.30721   0.84371   0.68851   1.000
    O829    O    0.28250   0.90384   0.71075   1.000
    O830    O    0.80719   0.84374   0.68850   1.000
    O831    O    0.78248   0.90387   0.71075   1.000
    O832    O    0.17023   0.02783   0.71379   1.000
    O833    O    0.67008   0.02785   0.71389   1.000
    O834    O    0.56241   0.26774   0.69543   1.000
    O835    O    0.50100   0.29378   0.72298   1.000
    O836    O    0.06243   0.26774   0.69539   1.000
    O837    O    0.00100   0.29378   0.72298   1.000
    O838    O    0.83912   0.81154   0.72921   1.000
    O839    O    0.33914   0.81151   0.72922   1.000
    O840    O    0.10374   0.22254   0.71566   1.000
    O841    O    0.12704   0.28348   0.71877   1.000
    O842    O    0.60373   0.22253   0.71569   1.000
    O843    O    0.62702   0.28347   0.71880   1.000
    O844    O    0.11545   0.83979   0.72991   1.000
    O845    O    0.61544   0.83976   0.72992   1.000
    O846    O    0.01826   0.77739   0.72658   1.000
    O847    O    0.51824   0.77739   0.72658   1.000
    O848    O    0.89419   0.35584   0.72839   1.000
    O849    O    0.39422   0.35586   0.72842   1.000
    O850    O    0.66631   0.35148   0.72392   1.000
    O851    O    0.70134   0.40842   0.73550   1.000
    O852    O    0.16632   0.35149   0.72393   1.000
    O853    O    0.20136   0.40842   0.73550   1.000
    O854    O    0.24906   0.08854   0.72796   1.000
    O855    O    0.30215   0.16514   0.73505   1.000
    O856    O    0.74901   0.08852   0.72796   1.000
    O857    O    0.80212   0.16512   0.73505   1.000
    O858    O    0.50642   0.83199   0.73136   1.000
    O859    O    0.00642   0.83200   0.73136   1.000
    O860    O    0.87380   0.29371   0.73301   1.000
    O861    O    0.83645   0.22443   0.73779   1.000
    O862    O    0.37383   0.29374   0.73303   1.000
    O863    O    0.33647   0.22446   0.73779   1.000
    O864    O    0.66117   0.31146   0.77063   1.000
    O865    O    0.16118   0.31147   0.77063   1.000
    O866    O    0.24787   0.98289   0.74077   1.000
    O867    O    0.29911   0.90853   0.76437   1.000
    O868    O    0.74782   0.98291   0.74078   1.000
    O869    O    0.79908   0.90855   0.76440   1.000
    O870    O    0.19258   0.06134   0.78317   1.000
    O871    O    0.69255   0.06135   0.78320   1.000
    O872    O    0.56172   0.81700   0.74911   1.000
    O873    O    0.49941   0.79402   0.77700   1.000
    O874    O    0.06173   0.81701   0.74912   1.000
    O875    O    0.99940   0.79403   0.77704   1.000
    O876    O    0.16381   0.72458   0.76242   1.000
    O877    O    0.19803   0.66521   0.76516   1.000
    O878    O    0.66380   0.72458   0.76244   1.000
    O879    O    0.69801   0.66521   0.76519   1.000
    O880    O    0.93874   0.31670   0.75105   1.000
    O881    O    0.88508   0.33948   0.77037   1.000
    O882    O    0.43876   0.31671   0.75106   1.000
    O883    O    0.38511   0.33950   0.77040   1.000
    O884    O    0.62659   0.79395   0.76723   1.000
    O885    O    0.60627   0.85607   0.77192   1.000
    O886    O    0.12660   0.79395   0.76724   1.000
    O887    O    0.10628   0.85607   0.77193   1.000
    O888    O    0.82973   0.18291   0.79227   1.000
    O889    O    0.32975   0.18293   0.79228   1.000
    O890    O    0.99410   0.33161   0.76876   1.000
    O891    O    0.98223   0.27699   0.77341   1.000
    O892    O    0.49411   0.33161   0.76877   1.000
    O893    O    0.48225   0.27699   0.77342   1.000
    O894    O    0.75241   0.48293   0.75926   1.000
    O895    O    0.75110   0.58863   0.77222   1.000
    O896    O    0.83004   0.52783   0.78624   1.000
    O897    O    0.25243   0.48293   0.75926   1.000
    O898    O    0.25111   0.58863   0.77222   1.000
    O899    O    0.33006   0.52784   0.78624   1.000
    O900    O    0.21779   0.40386   0.78919   1.000
    O901    O    0.71778   0.40385   0.78915   1.000
    O902    O    0.83415   0.85166   0.77592   1.000
    O903    O    0.87335   0.78361   0.78098   1.000
    O904    O    0.33417   0.85163   0.77590   1.000
    O905    O    0.37337   0.78359   0.78099   1.000
    O906    O    0.89663   0.72270   0.78399   1.000
    O907    O    0.39666   0.72268   0.78400   1.000
    O908    O    0.66191   0.75465   0.81373   1.000
    O909    O    0.16192   0.75465   0.81373   1.000
    O910    O    0.71716   0.65831   0.81795   1.000
    O911    O    0.21717   0.65831   0.81795   1.000
    O912    O    0.32368   0.90369   0.82412   1.000
    O913    O    0.82366   0.90371   0.82414   1.000
    O914    O    0.93791   0.76788   0.80442   1.000
    O915    O    0.88362   0.74499   0.82325   1.000
    O916    O    0.43793   0.76787   0.80439   1.000
    O917    O    0.38364   0.74498   0.82326   1.000
    O918    O    0.69298   0.34376   0.81136   1.000
    O919    O    0.66329   0.28063   0.81944   1.000
    O920    O    0.19299   0.34376   0.81140   1.000
    O921    O    0.16329   0.28064   0.81945   1.000
    O922    O    0.49353   0.75743   0.82347   1.000
    O923    O    0.47900   0.81149   0.82676   1.000
    O924    O    0.99352   0.75743   0.82350   1.000
    O925    O    0.97898   0.81149   0.82679   1.000
    O926    O    0.87232   0.51429   0.84661   1.000
    O927    O    0.37235   0.51429   0.84661   1.000
    O928    O    0.72829   0.38894   0.84164   1.000
    O929    O    0.22830   0.38894   0.84168   1.000
    O930    O    0.15652   0.06378   0.85074   1.000
    O931    O    0.65651   0.06379   0.85074   1.000
    O932    O    0.86235   0.15546   0.83254   1.000
    O933    O    0.81292   0.15856   0.84033   1.000
    O934    O    0.84129   0.20583   0.84235   1.000
    O935    O    0.36237   0.15546   0.83256   1.000
    O936    O    0.31293   0.15857   0.84033   1.000
    O937    O    0.34130   0.20584   0.84236   1.000
    O938    O    0.51049   0.53394   0.86647   1.000
    O939    O    0.01048   0.53393   0.86647   1.000
    O940    O    0.69491   0.71369   0.84849   1.000
    O941    O    0.66706   0.77519   0.86555   1.000
    O942    O    0.19492   0.71369   0.84849   1.000
    O943    O    0.16707   0.77519   0.86555   1.000
    O944    O    0.73037   0.66136   0.87095   1.000
    O945    O    0.23038   0.66136   0.87093   1.000
    O946    O    0.03366   0.14534   0.87875   1.000
    O947    O    0.53365   0.14535   0.87877   1.000
    O948    O    0.85311   0.94040   0.86192   1.000
    O949    O    0.80302   0.93618   0.86759   1.000
    O950    O    0.83273   0.89178   0.87682   1.000
    O951    O    0.35312   0.94039   0.86192   1.000
    O952    O    0.30304   0.93617   0.86759   1.000
    O953    O    0.33274   0.89178   0.87683   1.000
    O954    O    0.64682   0.00262   0.88114   1.000
    O955    O    0.62400   0.07039   0.90209   1.000
    O956    O    0.14683   0.00262   0.88111   1.000
    O957    O    0.12402   0.07040   0.90209   1.000
    O958    O    0.33849   0.51603   0.89525   1.000
    O959    O    0.40462   0.49883   0.89755   1.000
    O960    O    0.83846   0.51602   0.89523   1.000
    O961    O    0.90459   0.49882   0.89752   1.000
    O962    O    0.47552   0.50199   0.90314   1.000
    O963    O    0.54354   0.50899   0.90830   1.000
    O964    O    0.97551   0.50199   0.90312   1.000
    O965    O    0.04353   0.50898   0.90830   1.000
    O966    O    0.07291   0.12308   0.91635   1.000
    O967    O    0.02287   0.17422   0.92770   1.000
    O968    O    0.57289   0.12307   0.91636   1.000
    O969    O    0.52286   0.17422   0.92771   1.000
    O970    O    0.60421   0.51225   0.91678   1.000
    O971    O    0.10421   0.51225   0.91679   1.000
    O972    O    0.94142   0.46389   0.94640   1.000
    O973    O    0.44144   0.46389   0.94293   1.000
    O974    O    0.57423   0.47932   0.95678   1.000
    O975    O    0.07423   0.47931   0.95679   1.000
    O976    O    0.11416   0.10209   0.96174   1.000
    O977    O    0.61412   0.10208   0.96176   1.000
    O978    O    0.47966   0.22055   0.94233   1.000
    O979    O    0.97966   0.22054   0.94235   1.000
    O980    O    0.76628   0.27377   0.96518   1.000
    O981    O    0.26630   0.27378   0.96528   1.000
    O982    O    0.30900   0.31887   0.97200   1.000
    O983    O    0.80898   0.31886   0.97200   1.000
loop_
    _geom_bond_atom_site_label_1
    _geom_bond_atom_site_label_2
    _geom_bond_distance
    _geom_bond_site_symmetry_2
    _ccdc_geom_bond_type
    C354   O472      0.74609      .   S
    C346   O472      0.74609      .   S
    C354   O473      0.64919  1_554   S
    C438   O473      0.64919      .   S
    C354   O474      0.75577  1_554   S
    C356   O474      0.75577      .   S
    C355   O475      0.71757      .   S
    C347   O475      0.71757      .   S
    C355   O476      0.64919  1_554   S
    C439   O476      0.64919      .   S
    C355   O477      0.73140  1_554   S
    C357   O477      0.73140      .   S
    C437   O478      0.71310  1_554   S
    C356   O478      0.71310      .   S
    C437   O479      0.67191  1_554   S
    C365   O479      0.67191      .   S
    C436   O480      0.67485  1_454   S
    C357   O480      0.67485      .   S
    C436   O481      0.67192  1_554   S
    C364   O481      0.67192      .   S
    C220   O482      0.69715      .   S
    C218   O482      0.69715  1_565   S
    C220   O483      0.54659  1_554   S
    C18    O483      0.54659      .   S
    C220   O484      0.67185      .   S
    C400   O484      0.67185  1_556   S
    C221   O485      0.69718      .   S
    C219   O485      0.69718  1_565   S
    C221   O486      0.54648  1_554   S
    C19    O486      0.54648      .   S
    C221   O487      0.67183      .   S
    C401   O487      0.67183  1_556   S
    C208   O488      0.67146      .   S
    C402   O488      0.67146      .   S
    C208   O489      0.54573      .   S
    C12    O489      0.54573      .   S
    C208   O490      0.69730  1_554   S
    C206   O490      0.69730      .   S
    C209   O491      0.67136      .   S
    C403   O491      0.67136      .   S
    C209   O492      0.54576      .   S
    C13    O492      0.54576      .   S
    C209   O493      0.69734  1_554   S
    C207   O493      0.69734      .   S
    C163   O494      0.54649      .   S
    C365   O494      0.54649  1_556   S
    C162   O495      0.54648      .   S
    C364   O495      0.54648  1_556   S
    C212   O496      0.70601      .   S
    C214   O496      0.70601      .   S
    C212   O497      0.67469      .   S
    C400   O497      0.67469  1_556   S
    C212   O498      0.74596      .   S
    C210   O498      0.74596  1_556   S
    C213   O499      0.70605      .   S
    C215   O499      0.70605      .   S
    C213   O500      0.67465      .   S
    C401   O500      0.67465  1_556   S
    C213   O501      0.74594      .   S
    C211   O501      0.74594  1_556   S
    C403   O502      0.67573      .   S
    C211   O502      0.67573  1_556   S
    C402   O503      0.67590      .   S
    C210   O503      0.67590  1_556   S
    C351   O504      0.54484      .   S
    C155   O504      0.54484      .   S
    C351   O505      0.69555      .   S
    C349   O505      0.69555      .   S
    C351   O506      0.69709      .   S
    C353   O506      0.69709  1_556   S
    C350   O507      0.54499      .   S
    C154   O507      0.54499      .   S
    C350   O508      0.69538      .   S
    C348   O508      0.69538      .   S
    C350   O509      0.69726      .   S
    C352   O509      0.69726  1_556   S
    C347   O510      0.70954      .   S
    C349   O510      0.70954      .   S
    C347   O511      0.77606      .   S
    C345   O511      0.77606      .   S
    C346   O512      0.69980      .   S
    C348   O512      0.69980      .   S
    C346   O513      0.75599      .   S
    C344   O513      0.75599      .   S
    C218   O514      0.54479      .   S
    C16    O514      0.54479      .   S
    C218   O515      0.69639      .   S
    C216   O515      0.69639      .   S
    C219   O516      0.54454      .   S
    C17    O516      0.54454      .   S
    C219   O517      0.69640      .   S
    C217   O517      0.69640      .   S
    C214   O518      0.70052  1_545   S
    C216   O518      0.70052      .   S
    C214   O519      0.75595      .   S
    C222   O519      0.75595  1_565   S
    C215   O520      0.70053  1_545   S
    C217   O520      0.70053      .   S
    C215   O521      0.75599      .   S
    C223   O521      0.75599  1_565   S
    C445   O522      0.62264      .   S
    C223   O522      0.62264      .   S
    C444   O523      0.62265      .   S
    C222   O523      0.62265      .   S
    C349   O524      0.54478      .   S
    C153   O524      0.54478      .   S
    C348   O525      0.54478      .   S
    C152   O525      0.54478      .   S
    C100   O526      0.54869      .   S
    C294   O526      0.54869      .   S
    C101   O527      0.54821      .   S
    C295   O527      0.54821      .   S
    C69    O528      0.54244      .   S
    C273   O528      0.54244      .   S
    C68    O529      0.54243      .   S
    C272   O529      0.54243      .   S
    C216   O530      0.54494      .   S
    C14    O530      0.54494      .   S
    C217   O531      0.54499      .   S
    C15    O531      0.54499      .   S
    C71    O532      0.54203      .   S
    C275   O532      0.54203      .   S
    C70    O533      0.54203      .   S
    C274   O533      0.54203      .   S
    C465   O534      0.62128      .   S
    C345   O534      0.62128      .   S
    C464   O535      0.62129      .   S
    C344   O535      0.62129      .   S
    C222   O536      0.65209      .   S
    C446   O536      0.65209      .   S
    C223   O537      0.65208      .   S
    C447   O537      0.65208      .   S
    C344   O538      0.65131      .   S
    C466   O538      0.65131      .   S
    C345   O539      0.65124      .   S
    C467   O539      0.65124      .   S
    C99    O540      0.54802      .   S
    C295   O540      0.54802      .   S
    C98    O541      0.54825      .   S
    C294   O541      0.54825      .   S
    C193   O542      0.54208      .   S
    C387   O542      0.54208      .   S
    C192   O543      0.54206      .   S
    C386   O543      0.54206      .   S
    C103   O544      0.55040      .   S
    C295   O544      0.55040      .   S
    C102   O545      0.55048      .   S
    C294   O545      0.55048      .   S
    C295   O546      0.74124      .   S
    C293   O546      0.74124      .   S
    C294   O547      0.74125      .   S
    C292   O547      0.74125      .   S
    C168   O548      0.54912      .   S
    C374   O548      0.54912      .   S
    C169   O549      0.54911      .   S
    C375   O549      0.54911      .   S
    C170   O550      0.54848      .   S
    C374   O550      0.54848      .   S
    C171   O551      0.54868      .   S
    C375   O551      0.54868      .   S
    C273   O552      0.68472      .   S
    C275   O552      0.68472      .   S
    C273   O553      0.69468      .   S
    C405   O553      0.69468      .   S
    C272   O554      0.68471      .   S
    C274   O554      0.68471      .   S
    C272   O555      0.69471      .   S
    C404   O555      0.69471      .   S
    C91    O556      0.54901      .   S
    C287   O556      0.54901      .   S
    C90    O557      0.54903      .   S
    C286   O557      0.54903      .   S
    C275   O558      0.69409      .   S
    C407   O558      0.69409      .   S
    C274   O559      0.69411      .   S
    C406   O559      0.69411      .   S
    C88    O560      0.55084      .   S
    C284   O560      0.55084      .   S
    C89    O561      0.55089      .   S
    C285   O561      0.55089      .   S
    C86    O562      0.55104      .   S
    C284   O562      0.55104      .   S
    C87    O563      0.55107      .   S
    C285   O563      0.55107      .   S
    C172   O564      0.55062      .   S
    C374   O564      0.55062      .   S
    C173   O565      0.55062      .   S
    C375   O565      0.55062      .   S
    C190   O566      0.54207      .   S
    C384   O566      0.54207      .   S
    C191   O567      0.54170      .   S
    C385   O567      0.54170      .   S
    C374   O568      0.74172      .   S
    C372   O568      0.74172      .   S
    C375   O569      0.74172      .   S
    C373   O569      0.74172      .   S
    C467   O570      0.99570      .   S
    C7     O570      0.99570      .   S
    C466   O571      0.99555      .   S
    C6     O571      0.99555      .   S
    C387   O572      0.68352      .   S
    C385   O572      0.68352      .   S
    C387   O573      0.69488      .   S
    C433   O573      0.69488      .   S
    C386   O574      0.68351      .   S
    C384   O574      0.68351      .   S
    C386   O575      0.69494      .   S
    C432   O575      0.69494      .   S
    C446   O576      0.99408      .   S
    C2     O576      0.99408      .   S
    C447   O577      0.99405      .   S
    C3     O577      0.99405      .   S
    C284   O578      0.76516      .   S
    C286   O578      0.76516      .   S
    C284   O579      0.76407      .   S
    C282   O579      0.76407      .   S
    C285   O580      0.76513      .   S
    C287   O580      0.76513      .   S
    C285   O581      0.76404      .   S
    C283   O581      0.76404      .   S
    C385   O582      0.69398      .   S
    C435   O582      0.69398      .   S
    C384   O583      0.69394      .   S
    C434   O583      0.69394      .   S
    C286   O584      0.54895      .   S
    C92    O584      0.54895      .   S
    C286   O585      0.73421      .   S
    C410   O585      0.73421      .   S
    C287   O586      0.54895      .   S
    C93    O586      0.54895      .   S
    C287   O587      0.73427      .   S
    C411   O587      0.73427      .   S
    C176   O588      0.54786      .   S
    C376   O588      0.54786      .   S
    C177   O589      0.54785      .   S
    C377   O589      0.54785      .   S
    C178   O590      0.55069      .   S
    C378   O590      0.55069      .   S
    C179   O591      0.55048      .   S
    C379   O591      0.55048      .   S
    C78    O592      0.54891      .   S
    C280   O592      0.54891      .   S
    C79    O593      0.54858      .   S
    C281   O593      0.54858      .   S
    C293   O594      0.68346      .   S
    C411   O594      0.68346      .   S
    C293   O595      0.67294      .   S
    C409   O595      0.67294      .   S
    C292   O596      0.68312      .   S
    C410   O596      0.68312      .   S
    C292   O597      0.67233      .   S
    C408   O597      0.67233      .   S
    C405   O598      1.02033  1_655   S
    C2     O598      1.02033      .   S
    C405   O599      0.67253      .   S
    C277   O599      0.67253      .   S
    C404   O600      1.02000      .   S
    C3     O600      1.02000      .   S
    C404   O601      0.67257      .   S
    C276   O601      0.67257      .   S
    C180   O602      0.55052      .   S
    C378   O602      0.55052      .   S
    C181   O603      0.55050      .   S
    C379   O603      0.55050      .   S
    C407   O604      0.73438      .   S
    C281   O604      0.73438      .   S
    C407   O605      0.68266      .   S
    C277   O605      0.68266      .   S
    C406   O606      0.73454      .   S
    C280   O606      0.73454      .   S
    C406   O607      0.68268      .   S
    C276   O607      0.68268      .   S
    C410   O608      0.69399      .   S
    C288   O608      0.69399      .   S
    C411   O609      0.69396      .   S
    C289   O609      0.69396      .   S
    C433   O610      1.01154  1_655   S
    C2     O610      1.01154  1_565   S
    C433   O611      0.67243      .   S
    C389   O611      0.67243      .   S
    C432   O612      1.01144      .   S
    C3     O612      1.01144  1_565   S
    C432   O613      0.67249      .   S
    C388   O613      0.67249      .   S
    C2     O614      0.99567      .   S
    C450   O614      0.99567      .   S
    C3     O615      0.99575      .   S
    C451   O615      0.99575      .   S
    C378   O616      0.76387      .   S
    C376   O616      0.76387      .   S
    C378   O617      0.76407      .   S
    C380   O617      0.76407      .   S
    C372   O618      0.68268      .   S
    C430   O618      0.68268      .   S
    C372   O619      0.67255      .   S
    C428   O619      0.67255      .   S
    C379   O620      0.76395      .   S
    C377   O620      0.76395      .   S
    C379   O621      0.76407      .   S
    C381   O621      0.76407      .   S
    C373   O622      0.68249      .   S
    C431   O622      0.68249      .   S
    C373   O623      0.67251      .   S
    C429   O623      0.67251      .   S
    C281   O624      0.76397      .   S
    C283   O624      0.76397      .   S
    C281   O625      0.54822      .   S
    C81    O625      0.54822      .   S
    C280   O626      0.76390      .   S
    C282   O626      0.76390      .   S
    C280   O627      0.54786      .   S
    C80    O627      0.54786      .   S
    C376   O628      0.73454      .   S
    C430   O628      0.73454      .   S
    C376   O629      0.54885      .   S
    C174   O629      0.54885      .   S
    C377   O630      0.73437      .   S
    C431   O630      0.73437      .   S
    C377   O631      0.54886      .   S
    C175   O631      0.54886      .   S
    C277   O632      0.74176      .   S
    C279   O632      0.74176      .   S
    C276   O633      0.74171      .   S
    C278   O633      0.74171      .   S
    C282   O634      0.55052      .   S
    C84    O634      0.55052      .   S
    C282   O635      0.54437      .   S
    C82    O635      0.54437      .   S
    C283   O636      0.55050      .   S
    C85    O636      0.55050      .   S
    C283   O637      0.55053      .   S
    C83    O637      0.55053      .   S
    C6     O638      1.01123      .   S
    C409   O638      1.01123      .   S
    C6     O639      1.02044      .   S
    C429   O639      1.02044      .   S
    C6     O640      0.99418      .   S
    C462   O640      0.99418      .   S
    C7     O641      1.01133      .   S
    C408   O641      1.01133  1_455   S
    C7     O642      1.02033      .   S
    C428   O642      1.02033  1_455   S
    C7     O643      0.99420      .   S
    C463   O643      0.99420      .   S
    C408   O644      0.69469      .   S
    C290   O644      0.69469      .   S
    C409   O645      0.69493      .   S
    C291   O645      0.69493      .   S
    C434   O646      0.68318      .   S
    C388   O646      0.68318      .   S
    C434   O647      0.73428      .   S
    C382   O647      0.73428      .   S
    C435   O648      0.68319      .   S
    C389   O648      0.68319      .   S
    C435   O649      0.73428      .   S
    C383   O649      0.73428      .   S
    C188   O650      0.54896      .   S
    C382   O650      0.54896      .   S
    C189   O651      0.54930      .   S
    C383   O651      0.54930      .   S
    C430   O652      0.69410      .   S
    C370   O652      0.69410      .   S
    C431   O653      0.69449      .   S
    C371   O653      0.69449      .   S
    C428   O654      0.69469      .   S
    C368   O654      0.69469      .   S
    C429   O655      0.69480      .   S
    C369   O655      0.69480      .   S
    C389   O656      0.74119      .   S
    C391   O656      0.74119      .   S
    C388   O657      0.74124      .   S
    C390   O657      0.74124      .   S
    C382   O658      0.76508      .   S
    C380   O658      0.76508      .   S
    C382   O659      0.54900      .   S
    C186   O659      0.54900      .   S
    C383   O660      0.76514      .   S
    C381   O660      0.76514      .   S
    C383   O661      0.54898      .   S
    C187   O661      0.54898      .   S
    C288   O662      0.68345      .   S
    C290   O662      0.68345      .   S
    C288   O663      0.54174      .   S
    C94    O663      0.54174      .   S
    C289   O664      0.68350      .   S
    C291   O664      0.68350      .   S
    C289   O665      0.54158      .   S
    C95    O665      0.54158      .   S
    C380   O666      0.55109      .   S
    C182   O666      0.55109      .   S
    C380   O667      0.55083      .   S
    C184   O667      0.55083      .   S
    C381   O668      0.55111      .   S
    C183   O668      0.55111      .   S
    C381   O669      0.55087      .   S
    C185   O669      0.55087      .   S
    C462   O670      0.65213      .   S
    C318   O670      0.65213      .   S
    C463   O671      0.65205      .   S
    C319   O671      0.65205      .   S
    C290   O672      0.54231      .   S
    C96    O672      0.54231      .   S
    C291   O673      0.54205      .   S
    C97    O673      0.54205      .   S
    C450   O674      0.65125      .   S
    C248   O674      0.65125      .   S
    C451   O675      0.65145      .   S
    C249   O675      0.65145      .   S
    C279   O676      0.55064      .   S
    C77    O676      0.55064      .   S
    C279   O677      0.54845      .   S
    C75    O677      0.54845      .   S
    C279   O678      0.54912      .   S
    C73    O678      0.54912      .   S
    C278   O679      0.55061      .   S
    C76    O679      0.55061      .   S
    C278   O680      0.54841      .   S
    C74    O680      0.54841      .   S
    C278   O681      0.54907      .   S
    C72    O681      0.54907      .   S
    C110   O682      0.54496      .   S
    C312   O682      0.54496      .   S
    C111   O683      0.54499      .   S
    C313   O683      0.54499      .   S
    C370   O684      0.68472      .   S
    C368   O684      0.68472      .   S
    C370   O685      0.54198      .   S
    C166   O685      0.54198      .   S
    C371   O686      0.68471      .   S
    C369   O686      0.68471      .   S
    C371   O687      0.54194      .   S
    C167   O687      0.54194      .   S
    C368   O688      0.54247      .   S
    C164   O688      0.54247      .   S
    C369   O689      0.54242      .   S
    C165   O689      0.54242      .   S
    C56    O690      0.54526      .   S
    C252   O690      0.54526      .   S
    C57    O691      0.54530      .   S
    C253   O691      0.54530      .   S
    C390   O692      0.55043      .   S
    C198   O692      0.55043      .   S
    C390   O693      0.54838      .   S
    C194   O693      0.54838      .   S
    C390   O694      0.54823      .   S
    C196   O694      0.54823      .   S
    C391   O695      0.55044      .   S
    C199   O695      0.55044      .   S
    C391   O696      0.54835      .   S
    C195   O696      0.54835      .   S
    C391   O697      0.54877      .   S
    C197   O697      0.54877      .   S
    C248   O698      0.62144      .   S
    C448   O698      0.62144  1_545   S
    C248   O699      0.75604      .   S
    C250   O699      0.75604      .   S
    C249   O700      0.62083      .   S
    C449   O700      0.62083  1_545   S
    C249   O701      0.75597      .   S
    C251   O701      0.75597      .   S
    C319   O702      0.62271      .   S
    C461   O702      0.62271      .   S
    C319   O703      0.75604      .   S
    C311   O703      0.75604      .   S
    C318   O704      0.62269      .   S
    C460   O704      0.62269      .   S
    C318   O705      0.75600      .   S
    C310   O705      0.75600      .   S
    C312   O706      0.70049      .   S
    C310   O706      0.70049      .   S
    C312   O707      0.69645      .   S
    C314   O707      0.69645      .   S
    C313   O708      0.70048      .   S
    C311   O708      0.70048      .   S
    C313   O709      0.69641      .   S
    C315   O709      0.69641      .   S
    C252   O710      0.69983      .   S
    C250   O710      0.69983      .   S
    C252   O711      0.69489      .   S
    C254   O711      0.69489      .   S
    C253   O712      0.69982      .   S
    C251   O712      0.69982      .   S
    C253   O713      0.69546      .   S
    C255   O713      0.69546      .   S
    C112   O714      0.54479      .   S
    C314   O714      0.54479      .   S
    C113   O715      0.54479      .   S
    C315   O715      0.54479      .   S
    C310   O716      0.70619      .   S
    C308   O716      0.70619      .   S
    C311   O717      0.70618      .   S
    C309   O717      0.70618      .   S
    C314   O718      0.69711      .   S
    C316   O718      0.69711      .   S
    C315   O719      0.69715      .   S
    C317   O719      0.69715      .   S
    C250   O720      0.70426      .   S
    C258   O720      0.70426      .   S
    C251   O721      0.70387      .   S
    C259   O721      0.70387      .   S
    C59    O722      0.54503      .   S
    C255   O722      0.54503      .   S
    C58    O723      0.54479      .   S
    C254   O723      0.54479      .   S
    C109   O724      0.54572      .   S
    C305   O724      0.54572      .   S
    C108   O725      0.54571      .   S
    C304   O725      0.54571      .   S
    C254   O726      0.69795      .   S
    C256   O726      0.69795      .   S
    C255   O727      0.69719      .   S
    C257   O727      0.69719      .   S
    C427   O728      0.67140      .   S
    C305   O728      0.67140      .   S
    C427   O729      0.67603      .   S
    C307   O729      0.67603      .   S
    C426   O730      0.67138      .   S
    C304   O730      0.67138      .   S
    C426   O731      0.67602      .   S
    C306   O731      0.67602      .   S
    C309   O732      0.74597      .   S
    C307   O732      0.74597      .   S
    C309   O733      0.67461      .   S
    C425   O733      0.67461      .   S
    C308   O734      0.74595      .   S
    C306   O734      0.74595      .   S
    C308   O735      0.67461      .   S
    C424   O735      0.67461      .   S
    C67    O736      0.54645      .   S
    C269   O736      0.54645      .   S
    C66    O737      0.54642      .   S
    C268   O737      0.54642      .   S
    C305   O738      0.69725      .   S
    C303   O738      0.69725      .   S
    C304   O739      0.69722      .   S
    C302   O739      0.69722      .   S
    C316   O740      0.67185      .   S
    C424   O740      0.67185      .   S
    C316   O741      0.54601      .   S
    C114   O741      0.54601      .   S
    C317   O742      0.67186      .   S
    C425   O742      0.67186      .   S
    C317   O743      0.54641      .   S
    C115   O743      0.54641      .   S
    C413   O744      0.67187      .   S
    C269   O744      0.67187      .   S
    C413   O745      0.67477  1_655   S
    C260   O745      0.67477      .   S
    C412   O746      0.67182      .   S
    C268   O746      0.67182      .   S
    C412   O747      0.67461      .   S
    C261   O747      0.67461      .   S
    C258   O748      0.74591      .   S
    C260   O748      0.74591      .   S
    C258   O749      0.67602      .   S
    C414   O749      0.67602      .   S
    C259   O750      0.74604      .   S
    C261   O750      0.74604      .   S
    C259   O751      0.67608      .   S
    C415   O751      0.67608      .   S
    C307   O752      0.70418      .   S
    C299   O752      0.70418      .   S
    C306   O753      0.70415      .   S
    C298   O753      0.70415      .   S
    C269   O754      0.69711      .   S
    C267   O754      0.69711  1_545   S
    C268   O755      0.69721      .   S
    C266   O755      0.69721  1_545   S
    C256   O756      0.67143      .   S
    C414   O756      0.67143      .   S
    C256   O757      0.54579      .   S
    C60    O757      0.54579      .   S
    C257   O758      0.67149      .   S
    C415   O758      0.67149      .   S
    C257   O759      0.54577      .   S
    C61    O759      0.54577      .   S
    C260   O760      0.70621      .   S
    C262   O760      0.70621      .   S
    C261   O761      0.70601      .   S
    C263   O761      0.70601      .   S
    C303   O762      0.54497  1_655   S
    C106   O762      0.54497      .   S
    C303   O763      0.69539      .   S
    C301   O763      0.69539      .   S
    C302   O764      0.54502      .   S
    C107   O764      0.54502      .   S
    C302   O765      0.69536      .   S
    C300   O765      0.69536      .   S
    C299   O766      0.69985      .   S
    C301   O766      0.69985      .   S
    C299   O767      0.75601      .   S
    C297   O767      0.75601      .   S
    C298   O768      0.69982      .   S
    C300   O768      0.69982      .   S
    C298   O769      0.75598      .   S
    C296   O769      0.75598      .   S
    C267   O770      0.54481      .   S
    C65    O770      0.54481      .   S
    C267   O771      0.69649      .   S
    C265   O771      0.69649      .   S
    C266   O772      0.54480      .   S
    C64    O772      0.54480      .   S
    C266   O773      0.69634      .   S
    C264   O773      0.69634      .   S
    C262   O774      0.70073  1_565   S
    C265   O774      0.70073  1_655   S
    C262   O775      0.75614      .   S
    C270   O775      0.75614  1_545   S
    C263   O776      0.70050  1_565   S
    C264   O776      0.70050      .   S
    C263   O777      0.75600      .   S
    C271   O777      0.75600  1_545   S
    C452   O778      0.62295      .   S
    C270   O778      0.62295      .   S
    C453   O779      0.62263      .   S
    C271   O779      0.62263      .   S
    C301   O780      0.54525      .   S
    C105   O780      0.54525      .   S
    C300   O781      0.54532      .   S
    C104   O781      0.54532      .   S
    C53    O782      0.54874      .   S
    C247   O782      0.54874      .   S
    C52    O783      0.54869      .   S
    C246   O783      0.54869      .   S
    C20    O784      0.54248      .   S
    C224   O784      0.54248      .   S
    C21    O785      0.54241      .   S
    C225   O785      0.54241      .   S
    C265   O786      0.54454      .   S
    C63    O786      0.54454      .   S
    C264   O787      0.54508      .   S
    C62    O787      0.54508      .   S
    C23    O788      0.54203      .   S
    C227   O788      0.54203      .   S
    C22    O789      0.54204      .   S
    C226   O789      0.54204      .   S
    C456   O790      0.62140      .   S
    C296   O790      0.62140      .   S
    C457   O791      0.62130      .   S
    C297   O791      0.62130      .   S
    C270   O792      0.65210      .   S
    C454   O792      0.65210      .   S
    C271   O793      0.65208      .   S
    C455   O793      0.65208      .   S
    C297   O794      0.65132      .   S
    C459   O794      0.65132      .   S
    C296   O795      0.65130      .   S
    C458   O795      0.65130      .   S
    C50    O796      0.54831      .   S
    C246   O796      0.54831      .   S
    C51    O797      0.54830      .   S
    C247   O797      0.54830      .   S
    C55    O798      0.55050      .   S
    C247   O798      0.55050      .   S
    C54    O799      0.55050      .   S
    C246   O799      0.55050      .   S
    C145   O800      0.54207      .   S
    C339   O800      0.54207      .   S
    C144   O801      0.54200      .   S
    C338   O801      0.54200      .   S
    C247   O802      0.74123      .   S
    C245   O802      0.74123      .   S
    C246   O803      0.74130      .   S
    C244   O803      0.74130      .   S
    C121   O804      0.54909      .   S
    C327   O804      0.54909      .   S
    C120   O805      0.54907      .   S
    C326   O805      0.54907      .   S
    C123   O806      0.54846      .   S
    C327   O806      0.54846      .   S
    C122   O807      0.54846      .   S
    C326   O807      0.54846      .   S
    C225   O808      0.68472      .   S
    C227   O808      0.68472      .   S
    C225   O809      0.69474      .   S
    C393   O809      0.69474      .   S
    C224   O810      0.68470      .   S
    C226   O810      0.68470      .   S
    C224   O811      0.69468      .   S
    C392   O811      0.69468      .   S
    C43    O812      0.54900      .   S
    C239   O812      0.54900      .   S
    C42    O813      0.54834      .   S
    C238   O813      0.54834      .   S
    C227   O814      0.69406      .   S
    C395   O814      0.69406      .   S
    C226   O815      0.69403      .   S
    C394   O815      0.69403      .   S
    C41    O816      0.55129      .   S
    C237   O816      0.55129      .   S
    C40    O817      0.55086      .   S
    C236   O817      0.55086      .   S
    C38    O818      0.55132      .   S
    C237   O818      0.55132      .   S
    C39    O819      0.55118  1_655   S
    C236   O819      0.55118      .   S
    C125   O820      0.55061      .   S
    C327   O820      0.55061      .   S
    C124   O821      0.55060      .   S
    C326   O821      0.55060      .   S
    C143   O822      0.54217      .   S
    C337   O822      0.54217      .   S
    C142   O823      0.54174      .   S
    C336   O823      0.54174      .   S
    C327   O824      0.74173      .   S
    C325   O824      0.74173      .   S
    C326   O825      0.74134      .   S
    C324   O825      0.74134      .   S
    C459   O826      0.99544      .   S
    C5     O826      0.99544      .   S
    C458   O827      0.99536      .   S
    C4     O827      0.99536      .   S
    C338   O828      0.68350      .   S
    C336   O828      0.68350      .   S
    C338   O829      0.69499      .   S
    C420   O829      0.69499      .   S
    C339   O830      0.68351      .   S
    C337   O830      0.68351      .   S
    C339   O831      0.69496      .   S
    C421   O831      0.69496      .   S
    C454   O832      0.99408      .   S
    C0     O832      0.99408      .   S
    C455   O833      0.99407      .   S
    C1     O833      0.99407      .   S
    C237   O834      0.76515      .   S
    C239   O834      0.76515      .   S
    C237   O835      0.76412      .   S
    C234   O835      0.76412      .   S
    C236   O836      0.76505      .   S
    C238   O836      0.76505      .   S
    C236   O837      0.76419      .   S
    C235   O837      0.76419  1_655   S
    C337   O838      0.69402      .   S
    C423   O838      0.69402      .   S
    C336   O839      0.69402      .   S
    C422   O839      0.69402      .   S
    C238   O840      0.54932      .   S
    C44    O840      0.54932      .   S
    C238   O841      0.73467      .   S
    C398   O841      0.73467      .   S
    C239   O842      0.54892      .   S
    C45    O842      0.54892      .   S
    C239   O843      0.73429      .   S
    C399   O843      0.73429      .   S
    C128   O844      0.54814      .   S
    C328   O844      0.54814      .   S
    C129   O845      0.54790      .   S
    C329   O845      0.54790      .   S
    C130   O846      0.55047      .   S
    C330   O846      0.55047      .   S
    C131   O847      0.55046      .   S
    C331   O847      0.55046      .   S
    C31    O848      0.54892      .   S
    C233   O848      0.54892      .   S
    C30    O849      0.54888      .   S
    C232   O849      0.54888      .   S
    C245   O850      0.68316      .   S
    C399   O850      0.68316      .   S
    C245   O851      0.67241      .   S
    C397   O851      0.67241      .   S
    C244   O852      0.68316      .   S
    C398   O852      0.68316      .   S
    C244   O853      0.67233      .   S
    C396   O853      0.67233      .   S
    C392   O854      1.02006      .   S
    C0     O854      1.02006      .   S
    C392   O855      0.67251      .   S
    C228   O855      0.67251      .   S
    C393   O856      1.02012      .   S
    C1     O856      1.02012      .   S
    C393   O857      0.67257      .   S
    C229   O857      0.67257      .   S
    C132   O858      0.55051      .   S
    C331   O858      0.55051      .   S
    C133   O859      0.55059  1_655   S
    C330   O859      0.55059      .   S
    C395   O860      0.73456      .   S
    C233   O860      0.73456      .   S
    C395   O861      0.68267      .   S
    C229   O861      0.68267      .   S
    C394   O862      0.73456      .   S
    C232   O862      0.73456      .   S
    C394   O863      0.68265      .   S
    C228   O863      0.68265      .   S
    C399   O864      0.69394      .   S
    C241   O864      0.69394      .   S
    C398   O865      0.69393      .   S
    C240   O865      0.69393      .   S
    C420   O866      1.01137      .   S
    C0     O866      1.01137  1_545   S
    C420   O867      0.67205      .   S
    C340   O867      0.67205      .   S
    C421   O868      1.01144      .   S
    C1     O868      1.01144  1_545   S
    C421   O869      0.67243      .   S
    C341   O869      0.67243      .   S
    C0     O870      0.99580      .   S
    C442   O870      0.99580      .   S
    C1     O871      0.99579      .   S
    C443   O871      0.99579      .   S
    C331   O872      0.76389      .   S
    C329   O872      0.76389      .   S
    C331   O873      0.76351      .   S
    C332   O873      0.76351      .   S
    C330   O874      0.76390      .   S
    C328   O874      0.76390      .   S
    C330   O875      0.76417  1_455   S
    C333   O875      0.76417      .   S
    C324   O876      0.68296      .   S
    C418   O876      0.68296      .   S
    C324   O877      0.67286      .   S
    C416   O877      0.67286      .   S
    C325   O878      0.68276      .   S
    C419   O878      0.68276      .   S
    C325   O879      0.67261      .   S
    C417   O879      0.67261      .   S
    C233   O880      0.76391      .   S
    C235   O880      0.76391      .   S
    C233   O881      0.54771      .   S
    C33    O881      0.54771      .   S
    C232   O882      0.76391      .   S
    C234   O882      0.76391      .   S
    C232   O883      0.54784      .   S
    C32    O883      0.54784      .   S
    C329   O884      0.73447      .   S
    C419   O884      0.73447      .   S
    C329   O885      0.54891      .   S
    C127   O885      0.54891      .   S
    C328   O886      0.73446      .   S
    C418   O886      0.73446      .   S
    C328   O887      0.54890      .   S
    C126   O887      0.54890      .   S
    C229   O888      0.74170      .   S
    C231   O888      0.74170      .   S
    C228   O889      0.74180      .   S
    C230   O889      0.74180      .   S
    C235   O890      0.55061      .   S
    C36    O890      0.55061  1_455   S
    C235   O891      0.55053      .   S
    C35    O891      0.55053      .   S
    C234   O892      0.55051      .   S
    C37    O892      0.55051      .   S
    C234   O893      0.55050      .   S
    C34    O893      0.55050      .   S
    C5     O894      1.01118      .   S
    C397   O894      1.01118      .   S
    C5     O895      1.02061      .   S
    C417   O895      1.02061      .   S
    C5     O896      0.99450      .   S
    C471   O896      0.99450      .   S
    C4     O897      1.01118      .   S
    C396   O897      1.01118      .   S
    C4     O898      1.02067      .   S
    C416   O898      1.02067      .   S
    C4     O899      0.99455      .   S
    C470   O899      0.99455      .   S
    C396   O900      0.69490      .   S
    C242   O900      0.69490      .   S
    C397   O901      0.69424      .   S
    C243   O901      0.69424      .   S
    C423   O902      0.68315      .   S
    C341   O902      0.68315      .   S
    C423   O903      0.73426      .   S
    C335   O903      0.73426      .   S
    C422   O904      0.68295      .   S
    C340   O904      0.68295      .   S
    C422   O905      0.73423      .   S
    C334   O905      0.73423      .   S
    C141   O906      0.54894      .   S
    C335   O906      0.54894      .   S
    C140   O907      0.54890      .   S
    C334   O907      0.54890      .   S
    C419   O908      0.69408      .   S
    C323   O908      0.69408      .   S
    C418   O909      0.69408      .   S
    C322   O909      0.69408      .   S
    C417   O910      0.69476      .   S
    C321   O910      0.69476      .   S
    C416   O911      0.69474      .   S
    C320   O911      0.69474      .   S
    C340   O912      0.74180      .   S
    C342   O912      0.74180      .   S
    C341   O913      0.74122      .   S
    C343   O913      0.74122      .   S
    C335   O914      0.76511      .   S
    C333   O914      0.76511      .   S
    C335   O915      0.54902      .   S
    C139   O915      0.54902      .   S
    C334   O916      0.76503      .   S
    C332   O916      0.76503      .   S
    C334   O917      0.54900      .   S
    C138   O917      0.54900      .   S
    C241   O918      0.68340      .   S
    C243   O918      0.68340      .   S
    C241   O919      0.54174      .   S
    C47    O919      0.54174      .   S
    C240   O920      0.68354      .   S
    C242   O920      0.68354      .   S
    C240   O921      0.54173      .   S
    C46    O921      0.54173      .   S
    C332   O922      0.55138      .   S
    C135   O922      0.55138      .   S
    C332   O923      0.55126      .   S
    C136   O923      0.55126      .   S
    C333   O924      0.55119      .   S
    C134   O924      0.55119  1_455   S
    C333   O925      0.55088      .   S
    C137   O925      0.55088      .   S
    C471   O926      0.65202      .   S
    C367   O926      0.65202      .   S
    C470   O927      0.65202      .   S
    C366   O927      0.65202      .   S
    C243   O928      0.54269      .   S
    C49    O928      0.54269      .   S
    C242   O929      0.54203      .   S
    C48    O929      0.54203      .   S
    C442   O930      0.65143      .   S
    C200   O930      0.65143      .   S
    C443   O931      0.65095      .   S
    C201   O931      0.65095      .   S
    C231   O932      0.55063      .   S
    C29    O932      0.55063      .   S
    C231   O933      0.54843      .   S
    C27    O933      0.54843      .   S
    C231   O934      0.54911      .   S
    C25    O934      0.54911      .   S
    C230   O935      0.55062      .   S
    C28    O935      0.55062      .   S
    C230   O936      0.54840      .   S
    C26    O936      0.54840      .   S
    C230   O937      0.54908      .   S
    C24    O937      0.54908      .   S
    C159   O938      0.54500      .   S
    C361   O938      0.54500      .   S
    C158   O939      0.54498      .   S
    C360   O939      0.54498      .   S
    C323   O940      0.68465      .   S
    C321   O940      0.68465      .   S
    C323   O941      0.54203      .   S
    C119   O941      0.54203      .   S
    C322   O942      0.68465      .   S
    C320   O942      0.68465      .   S
    C322   O943      0.54201      .   S
    C118   O943      0.54201      .   S
    C321   O944      0.54245      .   S
    C117   O944      0.54245      .   S
    C320   O945      0.54209      .   S
    C116   O945      0.54209      .   S
    C8     O946      0.54536      .   S
    C204   O946      0.54536      .   S
    C9     O947      0.54523      .   S
    C205   O947      0.54523      .   S
    C343   O948      0.55047      .   S
    C151   O948      0.55047      .   S
    C343   O949      0.54843      .   S
    C147   O949      0.54843      .   S
    C343   O950      0.54874      .   S
    C149   O950      0.54874      .   S
    C342   O951      0.55045      .   S
    C150   O951      0.55045      .   S
    C342   O952      0.54838      .   S
    C146   O952      0.54838      .   S
    C342   O953      0.54865      .   S
    C148   O953      0.54865      .   S
    C201   O954      0.62157      .   S
    C441   O954      0.62157  1_565   S
    C201   O955      0.75645      .   S
    C203   O955      0.75645      .   S
    C200   O956      0.62141      .   S
    C440   O956      0.62141  1_565   S
    C200   O957      0.75602      .   S
    C202   O957      0.75602      .   S
    C366   O958      0.62259      .   S
    C468   O958      0.62259      .   S
    C366   O959      0.75590      .   S
    C358   O959      0.75590      .   S
    C367   O960      0.62234      .   S
    C469   O960      0.62234      .   S
    C367   O961      0.75567      .   S
    C359   O961      0.75567      .   S
    C361   O962      0.70044      .   S
    C358   O962      0.70044      .   S
    C361   O963      0.69639      .   S
    C363   O963      0.69639      .   S
    C360   O964      0.70046  1_455   S
    C359   O964      0.70046      .   S
    C360   O965      0.69645      .   S
    C362   O965      0.69645      .   S
    C204   O966      0.69980      .   S
    C202   O966      0.69980      .   S
    C204   O967      0.69546      .   S
    C206   O967      0.69546      .   S
    C205   O968      0.69982      .   S
    C203   O968      0.69982      .   S
    C205   O969      0.69550      .   S
    C207   O969      0.69550      .   S
    C161   O970      0.54478      .   S
    C363   O970      0.54478      .   S
    C160   O971      0.54477      .   S
    C362   O971      0.54477      .   S
    C359   O972      0.70667      .   S
    C357   O972      0.70667      .   S
    C358   O973      0.64802      .   S
    C356   O973      0.64802      .   S
    C363   O974      0.69708      .   S
    C365   O974      0.69708      .   S
    C362   O975      0.69708      .   S
    C364   O975      0.69708      .   S
    C202   O976      0.70430      .   S
    C210   O976      0.70430      .   S
    C203   O977      0.70425      .   S
    C211   O977      0.70425      .   S
    C10    O978      0.54515      .   S
    C207   O978      0.54515      .   S
    C11    O979      0.54519      .   S
    C206   O979      0.54519  1_455   S
    C157   O980      0.54696      .   S
    C353   O980      0.54696      .   S
    C156   O981      0.54574      .   S
    C352   O981      0.54574      .   S
    C438   O982      0.67145      .   S
    C352   O982      0.67145      .   S
    C439   O983      0.67143      .   S
    C353   O983      0.67143      .   S
