# CIF file generated by openbabel 2.4.90, see http://openbabel.sf.net
data_I
_chemical_name_common ''
_cell_length_a 17.665
_cell_length_b 15.53
_cell_length_c 19.77
_cell_angle_alpha 90.028
_cell_angle_beta 89.996
_cell_angle_gamma 90.022
_space_group_name_H-M_alt 'P 1'
_space_group_name_Hall 'P 1'
loop_
    _symmetry_equiv_pos_as_xyz
    x,y,z
loop_
    _atom_site_label
    _atom_site_type_symbol
    _atom_site_fract_x
    _atom_site_fract_y
    _atom_site_fract_z
    _atom_site_occupancy
    N0      N    0.99903   0.78925   0.77065   1.000
    N1      N    0.74876   0.71088   0.22939   1.000
    N2      N    0.66338   0.09475   0.01128   1.000
    N3      N    0.33696   0.59451   0.48918   1.000
    N4      N    0.91307   0.40576   0.98864   1.000
    N5      N    0.25113   0.21095   0.27070   1.000
    N6      N    0.49903   0.78924   0.77066   1.000
    N7      N    0.83692   0.59456   0.48918   1.000
    N8      N    0.41309   0.40577   0.98844   1.000
    N9      N    0.50137   0.28908   0.72936   1.000
    N10     N    0.16343   0.09477   0.01125   1.000
    N11     N    0.24878   0.71085   0.22937   1.000
    N12     N    0.00136   0.28907   0.72937   1.000
    N13     N    0.75118   0.21085   0.27080   1.000
    N14     N    0.58659   0.90528   0.51118   1.000
    N15     N    0.08689   0.90541   0.51089   1.000
    Zr16    Zr   0.08964   0.97497   0.24598   1.000
    O17     O    0.98320   0.04447   0.25088   1.000
    O18     O    0.98226   0.89306   0.23730   1.000
    O19     O    0.09823   0.94628   0.35107   1.000
    O20     O    0.12434   0.01167   0.15148   1.000
    Zr21    Zr   0.83969   0.52549   0.75412   1.000
    O22     O    0.73238   0.60721   0.76278   1.000
    O23     O    0.73329   0.45575   0.74921   1.000
    O24     O    0.87426   0.48889   0.84860   1.000
    O25     O    0.84828   0.55394   0.64901   1.000
    Zr26    Zr   0.66087   0.02500   0.74640   1.000
    O27     O    0.76715   0.95554   0.75106   1.000
    O28     O    0.76803   0.10690   0.73753   1.000
    O29     O    0.62593   0.98831   0.65168   1.000
    O30     O    0.65228   0.05379   0.85154   1.000
    Zr31    Zr   0.41050   0.47499   0.25414   1.000
    O32     O    0.51779   0.39308   0.26282   1.000
    O33     O    0.51686   0.54450   0.24924   1.000
    O34     O    0.37590   0.51161   0.34875   1.000
    O35     O    0.40184   0.44640   0.14882   1.000
    Zr36    Zr   0.58914   0.97498   0.24630   1.000
    O37     O    0.59773   0.94624   0.35146   1.000
    O38     O    0.62406   0.01166   0.15166   1.000
    O39     O    0.48290   0.04450   0.25104   1.000
    O40     O    0.48202   0.89306   0.23748   1.000
    Zr41    Zr   0.16101   0.02501   0.74631   1.000
    O42     O    0.15237   0.05380   0.85149   1.000
    O43     O    0.12616   0.98838   0.65150   1.000
    O44     O    0.26723   0.95554   0.75101   1.000
    O45     O    0.26811   0.10691   0.73748   1.000
    Zr46    Zr   0.91045   0.47500   0.25414   1.000
    O47     O    0.87586   0.51162   0.34875   1.000
    O48     O    0.01775   0.39312   0.26279   1.000
    O49     O    0.01684   0.54450   0.24924   1.000
    O50     O    0.90180   0.44640   0.14850   1.000
    Zr51    Zr   0.33971   0.52548   0.75412   1.000
    O52     O    0.37428   0.48889   0.84856   1.000
    O53     O    0.34830   0.55392   0.64901   1.000
    O54     O    0.23330   0.45574   0.74921   1.000
    O55     O    0.23239   0.60721   0.76278   1.000
loop_
    _geom_bond_atom_site_label_1
    _geom_bond_atom_site_label_2
    _geom_bond_distance
    _geom_bond_site_symmetry_2
    _ccdc_geom_bond_type
    Zr16   O17       2.17058  1_465   S
    N13    O17       4.86168      .   S
    Zr16   O18       2.28973  1_455   S
    N1     O18       5.00348      .   S
    Zr16   O19       2.13058      .   S
    N15    O19       3.22930      .   S
    Zr16   O20       2.04726  1_565   S
    N10    O20       3.13545      .   S
    Zr21   O22       2.28808      .   S
    N6     O22       5.00156      .   S
    Zr21   O23       2.17110      .   S
    N9     O23       4.86102      .   S
    Zr21   O24       2.04608      .   S
    N4     O24       3.13150      .   S
    Zr21   O25       2.13018      .   S
    N7     O25       3.22863      .   S
    Zr26   O27       2.16762  1_545   S
    N0     O27       4.85875      .   S
    Zr26   O28       2.28695      .   S
    N12    O28       5.00112  1_455   S
    Zr26   O29       2.05199  1_545   S
    N14    O29       3.13972      .   S
    Zr26   O30       2.13141      .   S
    N2     O30       3.22719  1_554   S
    Zr31   O32       2.28954      .   S
    N13    O32       5.00417      .   S
    Zr31   O33       2.16872      .   S
    N1     O33       4.85836      .   S
    Zr31   O34       2.04815      .   S
    N3     O34       3.13615      .   S
    Zr31   O35       2.13422      .   S
    N8     O35       3.23873  1_556   S
    Zr36   O37       2.13190      .   S
    N14    O37       3.22739      .   S
    Zr36   O38       2.05099  1_565   S
    N2     O38       3.13882      .   S
    Zr36   O39       2.16748  1_565   S
    N5     O39       4.85828      .   S
    Zr36   O40       2.28649      .   S
    N11    O40       4.99987      .   S
    Zr41   O42       2.13221      .   S
    N10    O42       3.22762  1_554   S
    Zr41   O43       2.05291  1_545   S
    N15    O43       3.14084      .   S
    Zr41   O44       2.16686  1_545   S
    N6     O44       4.85773      .   S
    Zr41   O45       2.28605      .   S
    N9     O45       4.99992      .   S
    Zr46   O47       2.04820      .   S
    N7     O47       3.13634      .   S
    Zr46   O48       2.28927  1_655   S
    N5     O48       5.00340      .   S
    Zr46   O49       2.16900  1_655   S
    N11    O49       4.85893      .   S
    Zr46   O50       2.14044      .   S
    N4     O50       3.22856  1_556   S
    Zr51   O52       2.04528      .   S
    N8     O52       3.12867      .   S
    Zr51   O53       2.13008      .   S
    N3     O53       3.22859      .   S
    Zr51   O54       2.17117      .   S
    N12    O54       4.86128      .   S
    Zr51   O55       2.28820      .   S
    N0     O55       5.00187  1_655   S
