# CIF file generated by openbabel 2.4.90, see http://openbabel.sf.net
data_I
_chemical_name_common ''
_cell_length_a 12.549
_cell_length_b 22.954
_cell_length_c 14.84
_cell_angle_alpha 90
_cell_angle_beta 90
_cell_angle_gamma 89.999
_space_group_name_H-M_alt 'P 1'
_space_group_name_Hall 'P 1'
loop_
    _symmetry_equiv_pos_as_xyz
    x,y,z
loop_
    _atom_site_label
    _atom_site_type_symbol
    _atom_site_fract_x
    _atom_site_fract_y
    _atom_site_fract_z
    _atom_site_occupancy
    N0      N    0.00002   0.50001   0.49999   1.000
    N1      N    0.49771   0.00001   0.74999   1.000
    N2      N    0.50233   0.50001   0.74996   1.000
    N3      N    0.49771   0.50001   0.24995   1.000
    N4      N    0.00002   0.00001   0.99999   1.000
    N5      N    0.00002   0.00001   0.49999   1.000
    N6      N    0.00002   0.50001   0.99999   1.000
    N7      N    0.50233   0.00001   0.24998   1.000
    Zr8     Zr   0.50002   0.25000   0.23845   1.000
    O9      O    0.50087   0.17559   0.24156   1.000
    O10     O    0.49917   0.32442   0.24154   1.000
    O11     O    0.35985   0.31216   0.16613   1.000
    O12     O    0.35976   0.18750   0.31658   1.000
    O13     O    0.64018   0.18785   0.16613   1.000
    O14     O    0.64028   0.31251   0.31658   1.000
    Zr15    Zr   0.50002   0.25000   0.73845   1.000
    O16     O    0.50087   0.32442   0.74156   1.000
    O17     O    0.49917   0.17559   0.74157   1.000
    O18     O    0.35976   0.31251   0.81658   1.000
    O19     O    0.35985   0.18785   0.66613   1.000
    O20     O    0.64028   0.18750   0.81658   1.000
    O21     O    0.64018   0.31216   0.66613   1.000
    Zr22    Zr   0.50002   0.75001   0.26155   1.000
    O23     O    0.49917   0.67559   0.25842   1.000
    O24     O    0.64028   0.68750   0.18342   1.000
    O25     O    0.50087   0.82443   0.25843   1.000
    O26     O    0.64019   0.81217   0.33386   1.000
    O27     O    0.35976   0.81251   0.18342   1.000
    O28     O    0.35986   0.68785   0.33386   1.000
    Zr29    Zr   0.50002   0.75001   0.76154   1.000
    O30     O    0.49917   0.82442   0.75842   1.000
    O31     O    0.64019   0.68785   0.83386   1.000
    O32     O    0.64028   0.81251   0.68341   1.000
    O33     O    0.50087   0.67559   0.75841   1.000
    O34     O    0.35986   0.81216   0.83386   1.000
    O35     O    0.35976   0.68750   0.68341   1.000
loop_
    _geom_bond_atom_site_label_1
    _geom_bond_atom_site_label_2
    _geom_bond_distance
    _geom_bond_site_symmetry_2
    _ccdc_geom_bond_type
    Zr8    O9        1.70880      .   S
    N7     O9        4.03225      .   S
    Zr8    O10       1.70883      .   S
    N3     O10       4.03237      .   S
    Zr8    O11       2.50620      .   S
    N6     O11       6.71269  1_556   S
    Zr8    O12       2.54966      .   S
    N5     O12       6.80517      .   S
    Zr8    O13       2.50619      .   S
    N4     O13       6.71265  1_456   S
    Zr8    O14       2.54970      .   S
    N0     O14       6.80529  1_455   S
    Zr15   O16       1.70884      .   S
    N2     O16       4.03237      .   S
    Zr15   O17       1.70880      .   S
    N1     O17       4.03227      .   S
    Zr15   O18       2.54964      .   S
    N6     O18       6.80516      .   S
    Zr15   O19       2.50622      .   S
    N5     O19       6.71271      .   S
    Zr15   O20       2.54963      .   S
    N4     O20       6.80512  1_455   S
    Zr15   O21       2.50625      .   S
    N0     O21       6.71282  1_455   S
    Zr22   O23       1.70885      .   S
    N3     O23       4.03240      .   S
    Zr22   O24       2.54967      .   S
    N6     O24       6.80523  1_456   S
    Zr22   O25       1.70881      .   S
    N7     O25       4.03227  1_545   S
    Zr22   O26       2.50618      .   S
    N5     O26       6.71263  1_445   S
    Zr22   O27       2.54966      .   S
    N4     O27       6.80518  1_546   S
    Zr22   O28       2.50623      .   S
    N0     O28       6.71278      .   S
    Zr29   O30       1.70880      .   S
    N1     O30       4.03226  1_545   S
    Zr29   O31       2.50619      .   S
    N6     O31       6.71265  1_455   S
    Zr29   O32       2.54968      .   S
    N5     O32       6.80521  1_445   S
    Zr29   O33       1.70884      .   S
    N2     O33       4.03239      .   S
    Zr29   O34       2.50619      .   S
    N4     O34       6.71264  1_545   S
    Zr29   O35       2.54971      .   S
    N0     O35       6.80531      .   S
