# CIF file generated by openbabel 2.4.90, see http://openbabel.sf.net
data_I
_chemical_name_common ''
_cell_length_a 17.233
_cell_length_b 17.256
_cell_length_c 17.407
_cell_angle_alpha 86.76
_cell_angle_beta 86.935
_cell_angle_gamma 89.302
_space_group_name_H-M_alt 'P 1'
_space_group_name_Hall 'P 1'
loop_
    _symmetry_equiv_pos_as_xyz
    x,y,z
loop_
    _atom_site_label
    _atom_site_type_symbol
    _atom_site_fract_x
    _atom_site_fract_y
    _atom_site_fract_z
    _atom_site_occupancy
    C0      C    0.07578   0.20998   0.66603   1.000
    C1      C    0.20669   0.08188   0.65958   1.000
    C2      C    0.07960   0.07641   0.80329   1.000
    C3      C    0.20625   0.20639   0.79347   1.000
    C4      C    0.79312   0.92684   0.33595   1.000
    C5      C    0.91996   0.79403   0.34002   1.000
    C6      C    0.92386   0.92340   0.19713   1.000
    C7      C    0.79395   0.79685   0.20699   1.000
    C8      C    0.84296   0.17442   0.61913   1.000
    C9      C    0.69906   0.16548   0.61715   1.000
    C10     C    0.69143   0.05997   0.84788   1.000
    C11     C    0.83553   0.06611   0.84767   1.000
    C12     C    0.59354   0.07331   0.61829   1.000
    C13     C    0.44925   0.08172   0.61761   1.000
    C14     C    0.43972   0.16616   0.84530   1.000
    C15     C    0.58371   0.15547   0.84788   1.000
    C16     C    0.17893   0.03564   0.28449   1.000
    C17     C    0.18872   0.03806   0.42626   1.000
    C18     C    0.17010   0.84773   0.60827   1.000
    C19     C    0.16286   0.70357   0.60536   1.000
    C20     C    0.09863   0.68902   0.84834   1.000
    C21     C    0.10174   0.83316   0.84955   1.000
    C22     C    0.06526   0.59601   0.62526   1.000
    C23     C    0.06834   0.45142   0.62607   1.000
    C24     C    0.20547   0.44184   0.82527   1.000
    C25     C    0.19933   0.58614   0.82762   1.000
    C26     C    0.06261   0.25831   0.28274   1.000
    C27     C    0.07081   0.25890   0.42513   1.000
    C28     C    0.83070   0.15905   0.38271   1.000
    C29     C    0.83808   0.30295   0.38356   1.000
    C30     C    0.93667   0.31111   0.15038   1.000
    C31     C    0.93186   0.16706   0.15151   1.000
    C32     C    0.92932   0.40845   0.37979   1.000
    C33     C    0.92094   0.55252   0.38032   1.000
    C34     C    0.83014   0.56217   0.15498   1.000
    C35     C    0.84098   0.41836   0.15243   1.000
    C36     C    0.96811   0.81955   0.71643   1.000
    C37     C    0.96556   0.80977   0.57459   1.000
    C38     C    0.15382   0.83344   0.39191   1.000
    C39     C    0.29810   0.84193   0.39513   1.000
    C40     C    0.31188   0.90733   0.15225   1.000
    C41     C    0.16760   0.90304   0.15078   1.000
    C42     C    0.40549   0.94091   0.37503   1.000
    C43     C    0.55035   0.93860   0.37404   1.000
    C44     C    0.55967   0.80143   0.17546   1.000
    C45     C    0.41516   0.80683   0.17324   1.000
    C46     C    0.74533   0.93604   0.71729   1.000
    C47     C    0.74467   0.92795   0.57491   1.000
    C48     C    0.16573   0.26416   0.02720   1.000
    C49     C    0.15836   0.26661   0.17042   1.000
    C50     C    0.08125   0.02923   0.18680   1.000
    C51     C    0.08443   0.02905   0.04424   1.000
    C52     C    0.73858   0.83343   0.97248   1.000
    C53     C    0.73705   0.83960   0.82914   1.000
    C54     C    0.97402   0.91864   0.81405   1.000
    C55     C    0.97315   0.91691   0.95673   1.000
    C56     C    0.93393   0.13074   0.73563   1.000
    C57     C    0.84799   0.12206   0.73390   1.000
    C58     C    0.80918   0.14874   0.66857   1.000
    C59     C    0.72884   0.14329   0.66768   1.000
    C60     C    0.68481   0.11315   0.73278   1.000
    C61     C    0.72437   0.08534   0.79759   1.000
    C62     C    0.80502   0.08870   0.79785   1.000
    C63     C    0.59898   0.11402   0.73310   1.000
    C64     C    0.55999   0.09366   0.66825   1.000
    C65     C    0.47939   0.09816   0.66756   1.000
    C66     C    0.43559   0.12490   0.73119   1.000
    C67     C    0.47392   0.14497   0.79626   1.000
    C68     C    0.55438   0.13857   0.79751   1.000
    C69     C    0.34937   0.13297   0.72924   1.000
    C70     C    0.15503   0.08465   0.31513   1.000
    C71     C    0.16086   0.08586   0.39439   1.000
    C72     C    0.14152   0.93500   0.73079   1.000
    C73     C    0.13696   0.84899   0.72912   1.000
    C74     C    0.15362   0.81231   0.66022   1.000
    C75     C    0.14937   0.73199   0.65891   1.000
    C76     C    0.13113   0.68640   0.72687   1.000
    C77     C    0.11438   0.72373   0.79566   1.000
    C78     C    0.11600   0.80418   0.79658   1.000
    C79     C    0.13203   0.60089   0.72651   1.000
    C80     C    0.09602   0.56229   0.66917   1.000
    C81     C    0.09757   0.48169   0.66936   1.000
    C82     C    0.13729   0.43808   0.72552   1.000
    C83     C    0.17415   0.47619   0.78236   1.000
    C84     C    0.17037   0.55660   0.78353   1.000
    C85     C    0.14014   0.35176   0.72522   1.000
    C86     C    0.14633   0.21344   0.06283   1.000
    C87     C    0.14201   0.21451   0.14277   1.000
    C88     C    0.09988   0.08089   0.15224   1.000
    C89     C    0.10164   0.08049   0.07234   1.000
    C90     C    0.09101   0.21036   0.31402   1.000
    C91     C    0.09509   0.21075   0.39355   1.000
    C92     C    0.13234   0.14418   0.94133   1.000
    C93     C    0.12630   0.14628   0.02685   1.000
    C94     C    0.12023   0.14781   0.18873   1.000
    C95     C    0.12131   0.14752   0.27352   1.000
    C96     C    0.13118   0.14908   0.43435   1.000
    C97     C    0.13820   0.15070   0.51918   1.000
    C98     C    0.87175   0.06841   0.26575   1.000
    C99     C    0.87965   0.15433   0.26675   1.000
    C100    C    0.85450   0.19298   0.33246   1.000
    C101    C    0.85906   0.27330   0.33270   1.000
    C102    C    0.88691   0.31740   0.26668   1.000
    C103    C    0.91308   0.27804   0.20140   1.000
    C104    C    0.91052   0.19744   0.20169   1.000
    C105    C    0.88552   0.40310   0.26611   1.000
    C106    C    0.90762   0.44198   0.33031   1.000
    C107    C    0.90310   0.52245   0.33092   1.000
    C108    C    0.87458   0.56621   0.26792   1.000
    C109    C    0.85268   0.52800   0.20353   1.000
    C110    C    0.85919   0.44765   0.20227   1.000
    C111    C    0.86693   0.65231   0.26997   1.000
    C112    C    0.91907   0.84347   0.68555   1.000
    C113    C    0.91777   0.83764   0.60630   1.000
    C114    C    0.06609   0.86190   0.26927   1.000
    C115    C    0.15217   0.86717   0.27113   1.000
    C116    C    0.18910   0.85048   0.34007   1.000
    C117    C    0.26948   0.85545   0.34155   1.000
    C118    C    0.31488   0.87439   0.27369   1.000
    C119    C    0.27731   0.89110   0.20486   1.000
    C120    C    0.19678   0.88881   0.20378   1.000
    C121    C    0.40051   0.87412   0.27407   1.000
    C122    C    0.43924   0.91038   0.33117   1.000
    C123    C    0.51999   0.90929   0.33086   1.000
    C124    C    0.56356   0.86974   0.27482   1.000
    C125    C    0.52530   0.83269   0.21819   1.000
    C126    C    0.44478   0.83602   0.21712   1.000
    C127    C    0.65001   0.86644   0.27504   1.000
    C128    C    0.78938   0.85300   0.93708   1.000
    C129    C    0.78885   0.85659   0.85713   1.000
    C130    C    0.92228   0.89984   0.84840   1.000
    C131    C    0.92208   0.89890   0.92831   1.000
    C132    C    0.79326   0.90763   0.68618   1.000
    C133    C    0.79281   0.90359   0.60670   1.000
    C134    C    0.85744   0.86901   0.05896   1.000
    C135    C    0.85611   0.87409   0.97340   1.000
    C136    C    0.85570   0.87865   0.81159   1.000
    C137    C    0.85619   0.87726   0.72685   1.000
    C138    C    0.85449   0.86746   0.56617   1.000
    C139    C    0.85261   0.86103   0.48134   1.000
    C140    C    0.96760   0.09312   0.79003   1.000
    C141    C    0.96670   0.17578   0.68307   1.000
    C142    C    0.31480   0.16971   0.78322   1.000
    C143    C    0.08963   0.31980   0.68649   1.000
    C144    C    0.09931   0.20288   0.55421   1.000
    C145    C    0.10351   0.96620   0.78632   1.000
    C146    C    0.18294   0.97008   0.67701   1.000
    C147    C    0.19278   0.31721   0.76370   1.000
    C148    C    0.31714   0.10288   0.67364   1.000
    C149    C    0.18301   0.09983   0.55044   1.000
    C150    C    0.14251   0.14353   0.73045   1.000
    C151    C    0.09997   0.08717   0.91210   1.000
    C152    C    0.16964   0.19893   0.90356   1.000
    C153    C    0.90686   0.03513   0.20983   1.000
    C154    C    0.82985   0.03509   0.32048   1.000
    C155    C    0.82737   0.68710   0.21806   1.000
    C156    C    0.68293   0.91645   0.31352   1.000
    C157    C    0.80010   0.90021   0.44674   1.000
    C158    C    0.03449   0.89984   0.21373   1.000
    C159    C    0.03135   0.82001   0.32289   1.000
    C160    C    0.68358   0.81350   0.23651   1.000
    C161    C    0.90035   0.68407   0.32389   1.000
    C162    C    0.90332   0.81661   0.44962   1.000
    C163    C    0.85754   0.85972   0.27016   1.000
    C164    C    0.91314   0.90328   0.08850   1.000
    C165    C    0.80329   0.83059   0.09639   1.000
    O166    O    0.13632   0.17986   0.04484   1.000
    O167    O    0.11397   0.11338   0.04960   1.000
    O168    O    0.12932   0.14523   0.98409   1.000
    O169    O    0.15603   0.23880   0.04501   1.000
    O170    O    0.09303   0.05477   0.05829   1.000
    O171    O    0.88529   0.88615   0.07373   1.000
    O172    O    0.83036   0.84980   0.07768   1.000
    O173    O    0.85678   0.87155   0.01618   1.000
    O174    O    0.14417   0.21397   0.10280   1.000
    O175    O    0.10076   0.08069   0.11229   1.000
    O176    O    0.91850   0.91334   0.14282   1.000
    O177    O    0.79862   0.81372   0.15169   1.000
    O178    O    0.15019   0.24056   0.15660   1.000
    O179    O    0.13112   0.18116   0.16575   1.000
    O180    O    0.92487   0.29458   0.17589   1.000
    O181    O    0.18219   0.89592   0.17728   1.000
    O182    O    0.92119   0.18225   0.17660   1.000
    O183    O    0.09056   0.05506   0.16952   1.000
    O184    O    0.11005   0.11435   0.17048   1.000
    O185    O    0.29459   0.89922   0.17856   1.000
    O186    O    0.85008   0.43300   0.17735   1.000
    O187    O    0.84141   0.54509   0.17925   1.000
    O188    O    0.42997   0.82142   0.19518   1.000
    O189    O    0.54248   0.81706   0.19683   1.000
    O190    O    0.12077   0.14767   0.23112   1.000
    O191    O    0.91536   0.97926   0.20348   1.000
    O192    O    0.97917   0.91162   0.20543   1.000
    O193    O    0.89070   0.89156   0.23365   1.000
    O194    O    0.91180   0.23774   0.20155   1.000
    O195    O    0.89999   0.29772   0.23404   1.000
    O196    O    0.89508   0.17589   0.23422   1.000
    O197    O    0.85594   0.48782   0.20290   1.000
    O198    O    0.87236   0.42537   0.23419   1.000
    O199    O    0.86363   0.54710   0.23573   1.000
    O200    O    0.23704   0.88995   0.20432   1.000
    O201    O    0.17448   0.87799   0.23745   1.000
    O202    O    0.29609   0.88275   0.23928   1.000
    O203    O    0.81066   0.74197   0.21253   1.000
    O204    O    0.73877   0.80517   0.22175   1.000
    O205    O    0.88930   0.05177   0.23779   1.000
    O206    O    0.05029   0.88087   0.24150   1.000
    O207    O    0.48504   0.83435   0.21765   1.000
    O208    O    0.42265   0.85507   0.24559   1.000
    O209    O    0.84715   0.66970   0.24402   1.000
    O210    O    0.54443   0.85121   0.24650   1.000
    O211    O    0.66679   0.83997   0.25577   1.000
    O212    O    0.87570   0.11137   0.26625   1.000
    O213    O    0.85080   0.05175   0.29312   1.000
    O214    O    0.88622   0.36025   0.26640   1.000
    O215    O    0.89657   0.42254   0.29821   1.000
    O216    O    0.87298   0.29535   0.29969   1.000
    O217    O    0.86707   0.17365   0.29960   1.000
    O218    O    0.87075   0.60926   0.26895   1.000
    O219    O    0.88884   0.54433   0.29942   1.000
    O220    O    0.10913   0.86453   0.27020   1.000
    O221    O    0.04872   0.84096   0.29608   1.000
    O222    O    0.88364   0.66819   0.29693   1.000
    O223    O    0.82533   0.89328   0.30306   1.000
    O224    O    0.17064   0.85883   0.30560   1.000
    O225    O    0.10616   0.17894   0.29377   1.000
    O226    O    0.13817   0.11609   0.29433   1.000
    O227    O    0.35770   0.87426   0.27388   1.000
    O228    O    0.29218   0.86492   0.30762   1.000
    O229    O    0.41988   0.89225   0.30262   1.000
    O230    O    0.60678   0.86809   0.27493   1.000
    O231    O    0.54178   0.88951   0.30284   1.000
    O232    O    0.66647   0.89144   0.29428   1.000
    O233    O    0.07681   0.23434   0.29838   1.000
    O234    O    0.16698   0.06015   0.29981   1.000
    O235    O    0.73803   0.92165   0.32474   1.000
    O236    O    0.09305   0.21056   0.35379   1.000
    O237    O    0.15795   0.08525   0.35476   1.000
    O238    O    0.81149   0.98097   0.32822   1.000
    O239    O    0.97565   0.80702   0.33146   1.000
    O240    O    0.91015   0.73905   0.33196   1.000
    O241    O    0.90536   0.48222   0.33062   1.000
    O242    O    0.91847   0.42522   0.35505   1.000
    O243    O    0.47962   0.90983   0.33101   1.000
    O244    O    0.53517   0.92395   0.35245   1.000
    O245    O    0.91202   0.53748   0.35562   1.000
    O246    O    0.42237   0.92565   0.35310   1.000
    O247    O    0.85678   0.23314   0.33258   1.000
    O248    O    0.84260   0.17601   0.35758   1.000
    O249    O    0.84857   0.28812   0.35813   1.000
    O250    O    0.79661   0.91353   0.39135   1.000
    O251    O    0.91164   0.80532   0.39482   1.000
    O252    O    0.22929   0.85297   0.34081   1.000
    O253    O    0.17146   0.84196   0.36599   1.000
    O254    O    0.28379   0.84869   0.36834   1.000
    O255    O    0.08295   0.23482   0.40934   1.000
    O256    O    0.11313   0.17991   0.41395   1.000
    O257    O    0.17479   0.06196   0.41033   1.000
    O258    O    0.14602   0.11747   0.41437   1.000
    O259    O    0.13469   0.14989   0.47677   1.000
    O260    O    0.82636   0.88062   0.46404   1.000
    O261    O    0.87797   0.83882   0.46548   1.000
    O262    O    0.85355   0.86424   0.52376   1.000
    O263    O    0.16060   0.12527   0.53481   1.000
    O264    O    0.11876   0.17679   0.53670   1.000
    O265    O    0.19485   0.09086   0.60501   1.000
    O266    O    0.08755   0.20643   0.61012   1.000
    O267    O    0.88613   0.85255   0.58623   1.000
    O268    O    0.82365   0.88552   0.58643   1.000
    O269    O    0.94166   0.82371   0.59045   1.000
    O270    O    0.76874   0.91577   0.59081   1.000
    O271    O    0.15612   0.71778   0.63214   1.000
    O272    O    0.91842   0.84056   0.64593   1.000
    O273    O    0.79304   0.90561   0.64644   1.000
    O274    O    0.16186   0.83002   0.63424   1.000
    O275    O    0.71395   0.15439   0.64241   1.000
    O276    O    0.46432   0.08994   0.64258   1.000
    O277    O    0.57677   0.08348   0.64327   1.000
    O278    O    0.82607   0.16158   0.64385   1.000
    O279    O    0.08064   0.57915   0.64722   1.000
    O280    O    0.08295   0.46656   0.64771   1.000
    O281    O    0.15150   0.77215   0.65957   1.000
    O282    O    0.14025   0.70920   0.69289   1.000
    O283    O    0.26192   0.09238   0.66661   1.000
    O284    O    0.19482   0.02598   0.66829   1.000
    O285    O    0.17460   0.11271   0.69501   1.000
    O286    O    0.14529   0.83065   0.69467   1.000
    O287    O    0.02124   0.19288   0.67455   1.000
    O288    O    0.08270   0.26489   0.67626   1.000
    O289    O    0.51969   0.09591   0.66790   1.000
    O290    O    0.45749   0.11153   0.69937   1.000
    O291    O    0.76901   0.14601   0.66812   1.000
    O292    O    0.70683   0.12822   0.70023   1.000
    O293    O    0.57949   0.10384   0.70067   1.000
    O294    O    0.82858   0.13540   0.70123   1.000
    O295    O    0.09680   0.52199   0.66926   1.000
    O296    O    0.11403   0.58159   0.69784   1.000
    O297    O    0.11743   0.45989   0.69744   1.000
    O298    O    0.33325   0.11793   0.70144   1.000
    O299    O    0.16223   0.95254   0.70390   1.000
    O300    O    0.95032   0.15326   0.70935   1.000
    O301    O    0.94359   0.83151   0.70099   1.000
    O302    O    0.88763   0.86037   0.70620   1.000
    O303    O    0.76930   0.92183   0.70174   1.000
    O304    O    0.82473   0.89244   0.70652   1.000
    O305    O    0.11488   0.33578   0.70586   1.000
    O306    O    0.13871   0.39492   0.72537   1.000
    O307    O    0.16646   0.33449   0.74446   1.000
    O308    O    0.15572   0.45714   0.75394   1.000
    O309    O    0.13158   0.64364   0.72669   1.000
    O310    O    0.15120   0.57874   0.75502   1.000
    O311    O    0.85594   0.87796   0.76922   1.000
    O312    O    0.12276   0.70506   0.76126   1.000
    O313    O    0.13924   0.89199   0.72995   1.000
    O314    O    0.12648   0.82658   0.76285   1.000
    O315    O    0.39248   0.12894   0.73021   1.000
    O316    O    0.33209   0.15134   0.75623   1.000
    O317    O    0.11106   0.10997   0.76687   1.000
    O318    O    0.12251   0.95060   0.75856   1.000
    O319    O    0.45475   0.13494   0.76372   1.000
    O320    O    0.64190   0.11359   0.73294   1.000
    O321    O    0.70459   0.09925   0.76518   1.000
    O322    O    0.57668   0.12630   0.76530   1.000
    O323    O    0.89096   0.12640   0.73476   1.000
    O324    O    0.82650   0.10538   0.76588   1.000
    O325    O    0.95077   0.11193   0.76283   1.000
    O326    O    0.19952   0.26180   0.77858   1.000
    O327    O    0.17226   0.51640   0.78294   1.000
    O328    O    0.18981   0.45901   0.80381   1.000
    O329    O    0.26053   0.18805   0.78835   1.000
    O330    O    0.18485   0.57137   0.80558   1.000
    O331    O    0.09155   0.02131   0.79481   1.000
    O332    O    0.02360   0.08477   0.79666   1.000
    O333    O    0.18795   0.20266   0.84852   1.000
    O334    O    0.11519   0.76395   0.79612   1.000
    O335    O    0.10650   0.70637   0.82200   1.000
    O336    O    0.51415   0.14177   0.79688   1.000
    O337    O    0.45682   0.15556   0.82078   1.000
    O338    O    0.10887   0.81867   0.82307   1.000
    O339    O    0.56905   0.14702   0.82269   1.000
    O340    O    0.76469   0.08702   0.79772   1.000
    O341    O    0.70790   0.07265   0.82273   1.000
    O342    O    0.82027   0.07741   0.82276   1.000
    O343    O    0.08978   0.08179   0.85769   1.000
    O344    O    0.88899   0.88925   0.83000   1.000
    O345    O    0.82227   0.86762   0.83436   1.000
    O346    O    0.94815   0.90924   0.83122   1.000
    O347    O    0.76295   0.84810   0.84313   1.000
    O348    O    0.92218   0.89937   0.88835   1.000
    O349    O    0.78911   0.85480   0.89710   1.000
    O350    O    0.15099   0.17155   0.92244   1.000
    O351    O    0.11615   0.11568   0.92671   1.000
    O352    O    0.94762   0.90791   0.94252   1.000
    O353    O    0.88910   0.88650   0.95085   1.000
    O354    O    0.76398   0.84322   0.95478   1.000
    O355    O    0.82275   0.86354   0.95524   1.000
    O356    O    0.10915   0.17675   0.69824   1.000
    O357    O    0.17438   0.17496   0.76196   1.000
    O358    O    0.88875   0.82687   0.30509   1.000
    O359    O    0.82575   0.82828   0.23857   1.000
loop_
    _geom_bond_atom_site_label_1
    _geom_bond_atom_site_label_2
    _geom_bond_distance
    _geom_bond_site_symmetry_2
    _ccdc_geom_bond_type
    C93    O166      0.70165      .   S
    C86    O166      0.70165      .   S
    C93    O167      0.70190      .   S
    C89    O167      0.70190      .   S
    C93    O168      0.74461  1_554   S
    C92    O168      0.74461      .   S
    C48    O169      0.54457      .   S
    C86    O169      0.54457      .   S
    C51    O170      0.54460      .   S
    C89    O170      0.54460      .   S
    C134   O171      0.63968      .   S
    C164   O171      0.63968      .   S
    C134   O172      0.63956      .   S
    C165   O172      0.63956      .   S
    C134   O173      0.74422      .   S
    C135   O173      0.74422  1_556   S
    C86    O174      0.69532      .   S
    C87    O174      0.69532      .   S
    C89    O175      0.69497      .   S
    C88    O175      0.69497      .   S
    C164   O176      0.98021      .   S
    C6     O176      0.98021      .   S
    C165   O177      0.98916      .   S
    C7     O177      0.98916      .   S
    C87    O178      0.54527      .   S
    C49    O178      0.54527      .   S
    C87    O179      0.70352      .   S
    C94    O179      0.70352      .   S
    C30    O180      0.54532      .   S
    C103   O180      0.54532      .   S
    C41    O181      0.54439      .   S
    C120   O181      0.54439      .   S
    C31    O182      0.54448      .   S
    C104   O182      0.54448      .   S
    C88    O183      0.54438      .   S
    C50    O183      0.54438      .   S
    C88    O184      0.70292      .   S
    C94    O184      0.70292      .   S
    C40    O185      0.54517      .   S
    C119   O185      0.54517      .   S
    C35    O186      0.54523      .   S
    C110   O186      0.54523      .   S
    C34    O187      0.54456      .   S
    C109   O187      0.54456      .   S
    C45    O188      0.54523      .   S
    C126   O188      0.54523      .   S
    C44    O189      0.54443      .   S
    C125   O189      0.54443      .   S
    C94    O190      0.73843      .   S
    C95    O190      0.73843      .   S
    C6     O191      0.98482      .   S
    C153   O191      0.98482  1_545   S
    C6     O192      0.98875      .   S
    C158   O192      0.98875  1_455   S
    C6     O193      0.98063      .   S
    C163   O193      0.98063      .   S
    C103   O194      0.69590      .   S
    C104   O194      0.69590      .   S
    C103   O195      0.70370      .   S
    C102   O195      0.70370      .   S
    C104   O196      0.70155      .   S
    C99    O196      0.70155      .   S
    C110   O197      0.69552      .   S
    C109   O197      0.69552      .   S
    C110   O198      0.70372      .   S
    C105   O198      0.70372      .   S
    C109   O199      0.70146      .   S
    C108   O199      0.70146      .   S
    C120   O200      0.69493      .   S
    C119   O200      0.69493      .   S
    C120   O201      0.70110      .   S
    C115   O201      0.70110      .   S
    C119   O202      0.70309      .   S
    C118   O202      0.70309      .   S
    C7     O203      0.98736      .   S
    C155   O203      0.98736      .   S
    C7     O204      0.98275      .   S
    C160   O204      0.98275      .   S
    C153   O205      0.63932      .   S
    C98    O205      0.63932      .   S
    C158   O206      0.63946      .   S
    C114   O206      0.63946      .   S
    C126   O207      0.69454      .   S
    C125   O207      0.69454      .   S
    C126   O208      0.70315      .   S
    C121   O208      0.70315      .   S
    C155   O209      0.63956      .   S
    C111   O209      0.63956      .   S
    C125   O210      0.70109      .   S
    C124   O210      0.70109      .   S
    C160   O211      0.63908      .   S
    C127   O211      0.63908      .   S
    C98    O212      0.74586      .   S
    C99    O212      0.74586      .   S
    C98    O213      0.63920      .   S
    C154   O213      0.63920      .   S
    C105   O214      0.73910      .   S
    C102   O214      0.73910      .   S
    C105   O215      0.70365      .   S
    C106   O215      0.70365      .   S
    C102   O216      0.70377      .   S
    C101   O216      0.70377      .   S
    C99    O217      0.70126      .   S
    C100   O217      0.70126      .   S
    C108   O218      0.74617      .   S
    C111   O218      0.74617      .   S
    C108   O219      0.70166      .   S
    C107   O219      0.70166      .   S
    C114   O220      0.74478      .   S
    C115   O220      0.74478      .   S
    C114   O221      0.63771      .   S
    C159   O221      0.63771      .   S
    C111   O222      0.63963      .   S
    C161   O222      0.63963      .   S
    C163   O223      0.98341      .   S
    C4     O223      0.98341      .   S
    C115   O224      0.70105      .   S
    C116   O224      0.70105      .   S
    C95    O225      0.70331      .   S
    C90    O225      0.70331      .   S
    C95    O226      0.70365      .   S
    C70    O226      0.70365      .   S
    C118   O227      0.73801      .   S
    C121   O227      0.73801      .   S
    C118   O228      0.70321      .   S
    C117   O228      0.70321      .   S
    C121   O229      0.70292      .   S
    C122   O229      0.70292      .   S
    C124   O230      0.74512      .   S
    C127   O230      0.74512      .   S
    C124   O231      0.70103      .   S
    C123   O231      0.70103      .   S
    C127   O232      0.63907      .   S
    C156   O232      0.63907      .   S
    C26    O233      0.54505      .   S
    C90    O233      0.54505      .   S
    C16    O234      0.54504      .   S
    C70    O234      0.54504      .   S
    C156   O235      0.98560      .   S
    C4     O235      0.98560      .   S
    C90    O236      0.69519      .   S
    C91    O236      0.69519      .   S
    C70    O237      0.69497      .   S
    C71    O237      0.69497      .   S
    C154   O238      0.98946  1_545   S
    C4     O238      0.98946      .   S
    C159   O239      0.98989  1_455   S
    C5     O239      0.98989      .   S
    C161   O240      0.98477      .   S
    C5     O240      0.98477      .   S
    C106   O241      0.69519      .   S
    C107   O241      0.69519      .   S
    C106   O242      0.54532      .   S
    C32    O242      0.54532      .   S
    C123   O243      0.69553      .   S
    C122   O243      0.69553      .   S
    C123   O244      0.54454      .   S
    C43    O244      0.54454      .   S
    C107   O245      0.54446      .   S
    C33    O245      0.54446      .   S
    C122   O246      0.54531      .   S
    C42    O246      0.54531      .   S
    C100   O247      0.69474      .   S
    C101   O247      0.69474      .   S
    C100   O248      0.54443      .   S
    C28    O248      0.54443      .   S
    C101   O249      0.54517      .   S
    C29    O249      0.54517      .   S
    C4     O250      0.98336      .   S
    C157   O250      0.98336      .   S
    C5     O251      0.98700      .   S
    C162   O251      0.98700      .   S
    C116   O252      0.69525      .   S
    C117   O252      0.69525      .   S
    C116   O253      0.54463      .   S
    C38    O253      0.54463      .   S
    C117   O254      0.54528      .   S
    C39    O254      0.54528      .   S
    C91    O255      0.54450      .   S
    C27    O255      0.54450      .   S
    C91    O256      0.70170      .   S
    C96    O256      0.70170      .   S
    C71    O257      0.54446      .   S
    C17    O257      0.54446      .   S
    C71    O258      0.70171      .   S
    C96    O258      0.70171      .   S
    C96    O259      0.74496      .   S
    C97    O259      0.74496      .   S
    C157   O260      0.63959      .   S
    C139   O260      0.63959      .   S
    C162   O261      0.63952      .   S
    C139   O261      0.63952      .   S
    C139   O262      0.74451      .   S
    C138   O262      0.74451      .   S
    C97    O263      0.63978      .   S
    C149   O263      0.63978      .   S
    C97    O264      0.63939      .   S
    C144   O264      0.63939      .   S
    C149   O265      0.98552      .   S
    C1     O265      0.98552      .   S
    C144   O266      0.98857      .   S
    C0     O266      0.98857      .   S
    C138   O267      0.70164      .   S
    C113   O267      0.70164      .   S
    C138   O268      0.70169      .   S
    C133   O268      0.70169      .   S
    C37    O269      0.54450      .   S
    C113   O269      0.54450      .   S
    C47    O270      0.54443      .   S
    C133   O270      0.54443      .   S
    C19    O271      0.54528      .   S
    C75    O271      0.54528      .   S
    C113   O272      0.69512      .   S
    C112   O272      0.69512      .   S
    C133   O273      0.69481      .   S
    C132   O273      0.69481      .   S
    C18    O274      0.54462      .   S
    C74    O274      0.54462      .   S
    C9     O275      0.54518      .   S
    C59    O275      0.54518      .   S
    C13    O276      0.54450      .   S
    C65    O276      0.54450      .   S
    C12    O277      0.54533      .   S
    C64    O277      0.54533      .   S
    C8     O278      0.54445      .   S
    C58    O278      0.54445      .   S
    C22    O279      0.54530      .   S
    C80    O279      0.54530      .   S
    C23    O280      0.54448      .   S
    C81    O280      0.54448      .   S
    C75    O281      0.69517      .   S
    C74    O281      0.69517      .   S
    C75    O282      0.70326      .   S
    C76    O282      0.70326      .   S
    C1     O283      0.98619      .   S
    C148   O283      0.98619      .   S
    C1     O284      0.99014      .   S
    C146   O284      0.99014  1_565   S
    C1     O285      0.98113      .   S
    C150   O285      0.98113      .   S
    C74    O286      0.70104      .   S
    C73    O286      0.70104      .   S
    C0     O287      0.98963      .   S
    C141   O287      0.98963  1_655   S
    C0     O288      0.98378      .   S
    C143   O288      0.98378      .   S
    C65    O289      0.69546      .   S
    C64    O289      0.69546      .   S
    C65    O290      0.70168      .   S
    C66    O290      0.70168      .   S
    C59    O291      0.69492      .   S
    C58    O291      0.69492      .   S
    C59    O292      0.70379      .   S
    C60    O292      0.70379      .   S
    C64    O293      0.70373      .   S
    C63    O293      0.70373      .   S
    C58    O294      0.70126      .   S
    C57    O294      0.70126      .   S
    C80    O295      0.69523      .   S
    C81    O295      0.69523      .   S
    C80    O296      0.70290      .   S
    C79    O296      0.70290      .   S
    C81    O297      0.70121      .   S
    C82    O297      0.70121      .   S
    C148   O298      0.63952      .   S
    C69    O298      0.63952      .   S
    C146   O299      0.63784      .   S
    C72    O299      0.63784      .   S
    C141   O300      0.63927      .   S
    C56    O300      0.63927      .   S
    C112   O301      0.54506      .   S
    C36    O301      0.54506      .   S
    C112   O302      0.70356      .   S
    C137   O302      0.70356      .   S
    C132   O303      0.54504      .   S
    C46    O303      0.54504      .   S
    C132   O304      0.70320      .   S
    C137   O304      0.70320      .   S
    C143   O305      0.63894      .   S
    C85    O305      0.63894      .   S
    C85    O306      0.74500      .   S
    C82    O306      0.74500      .   S
    C85    O307      0.63908      .   S
    C147   O307      0.63908      .   S
    C82    O308      0.70097      .   S
    C83    O308      0.70097      .   S
    C79    O309      0.73795      .   S
    C76    O309      0.73795      .   S
    C79    O310      0.70319      .   S
    C84    O310      0.70319      .   S
    C137   O311      0.73811      .   S
    C136   O311      0.73811      .   S
    C76    O312      0.70310      .   S
    C77    O312      0.70310      .   S
    C73    O313      0.74465      .   S
    C72    O313      0.74465      .   S
    C73    O314      0.70113      .   S
    C78    O314      0.70113      .   S
    C69    O315      0.74633      .   S
    C66    O315      0.74633      .   S
    C69    O316      0.63996      .   S
    C142   O316      0.63996      .   S
    C150   O317      0.98005      .   S
    C2     O317      0.98005      .   S
    C72    O318      0.63953      .   S
    C145   O318      0.63953      .   S
    C66    O319      0.70157      .   S
    C67    O319      0.70157      .   S
    C60    O320      0.73938      .   S
    C63    O320      0.73938      .   S
    C60    O321      0.70375      .   S
    C61    O321      0.70375      .   S
    C63    O322      0.70376      .   S
    C68    O322      0.70376      .   S
    C57    O323      0.74628      .   S
    C56    O323      0.74628      .   S
    C57    O324      0.70158      .   S
    C62    O324      0.70158      .   S
    C56    O325      0.63932      .   S
    C140   O325      0.63932      .   S
    C147   O326      0.98355      .   S
    C3     O326      0.98355      .   S
    C83    O327      0.69480      .   S
    C84    O327      0.69480      .   S
    C83    O328      0.54449      .   S
    C24    O328      0.54449      .   S
    C142   O329      0.98490      .   S
    C3     O329      0.98490      .   S
    C84    O330      0.54524      .   S
    C25    O330      0.54524      .   S
    C145   O331      0.98807  1_565   S
    C2     O331      0.98807      .   S
    C140   O332      0.98594  1_655   S
    C2     O332      0.98594      .   S
    C3     O333      0.99141      .   S
    C152   O333      0.99141      .   S
    C77    O334      0.69494      .   S
    C78    O334      0.69494      .   S
    C77    O335      0.54517      .   S
    C20    O335      0.54517      .   S
    C67    O336      0.69545      .   S
    C68    O336      0.69545      .   S
    C67    O337      0.54452      .   S
    C14    O337      0.54452      .   S
    C78    O338      0.54441      .   S
    C21    O338      0.54441      .   S
    C68    O339      0.54522      .   S
    C15    O339      0.54522      .   S
    C61    O340      0.69599      .   S
    C62    O340      0.69599      .   S
    C61    O341      0.54534      .   S
    C10    O341      0.54534      .   S
    C62    O342      0.54450      .   S
    C11    O342      0.54450      .   S
    C2     O343      0.98199      .   S
    C151   O343      0.98199      .   S
    C136   O344      0.70283      .   S
    C130   O344      0.70283      .   S
    C136   O345      0.70345      .   S
    C129   O345      0.70345      .   S
    C54    O346      0.54442      .   S
    C130   O346      0.54442      .   S
    C53    O347      0.54527      .   S
    C129   O347      0.54527      .   S
    C130   O348      0.69502      .   S
    C131   O348      0.69502      .   S
    C129   O349      0.69507      .   S
    C128   O349      0.69507      .   S
    C152   O350      0.63974      .   S
    C92    O350      0.63974      .   S
    C151   O351      0.63999      .   S
    C92    O351      0.63999      .   S
    C131   O352      0.54462      .   S
    C55    O352      0.54462      .   S
    C131   O353      0.70182      .   S
    C135   O353      0.70182      .   S
    C128   O354      0.54456      .   S
    C52    O354      0.54456      .   S
    C128   O355      0.70151      .   S
    C135   O355      0.70151      .   S
    C150   O356      0.98173      .   S
    C0     O356      0.98173      .   S
    C150   O357      0.98478      .   S
    C3     O357      0.98478      .   S
    C163   O358      0.98431      .   S
    C5     O358      0.98431      .   S
    C163   O359      0.98487      .   S
    C7     O359      0.98487      .   S
