# CIF file generated by openbabel 2.4.90, see http://openbabel.sf.net
data_I
_chemical_name_common ''
_cell_length_a 17.233
_cell_length_b 17.256
_cell_length_c 17.407
_cell_angle_alpha 86.76
_cell_angle_beta 86.935
_cell_angle_gamma 89.302
_space_group_name_H-M_alt 'P 1'
_space_group_name_Hall 'P 1'
loop_
    _symmetry_equiv_pos_as_xyz
    x,y,z
loop_
    _atom_site_label
    _atom_site_type_symbol
    _atom_site_fract_x
    _atom_site_fract_y
    _atom_site_fract_z
    _atom_site_occupancy
    N0      N    0.13403   0.64361   0.72698   1.000
    N1      N    0.12409   0.14758   0.23090   1.000
    N2      N    0.85572   0.87500   0.76946   1.000
    N3      N    0.35776   0.87166   0.27346   1.000
    N4      N    0.88226   0.36023   0.26692   1.000
    N5      N    0.64188   0.11791   0.73266   1.000
    Zr6     Zr   0.85956   0.86182   0.27003   1.000
    O7      O    0.67092   0.86585   0.27211   1.000
    O8      O    0.85710   0.86572   0.45832   1.000
    O9      O    0.04650   0.86496   0.27093   1.000
    O10     O    0.85791   0.86755   0.08143   1.000
    O11     O    0.86803   0.67328   0.26898   1.000
    O12     O    0.86927   0.04881   0.26831   1.000
    Zr13    Zr   0.14058   0.14205   0.73035   1.000
    O14     O    0.32888   0.13274   0.73089   1.000
    O15     O    0.13364   0.14423   0.91892   1.000
    O16     O    0.13861   0.95493   0.72941   1.000
    O17     O    0.13498   0.14539   0.54209   1.000
    O18     O    0.13848   0.33066   0.72826   1.000
    O19     O    0.95350   0.13210   0.73203   1.000
loop_
    _geom_bond_atom_site_label_1
    _geom_bond_atom_site_label_2
    _geom_bond_distance
    _geom_bond_site_symmetry_2
    _ccdc_geom_bond_type
    Zr6    O7        3.24911      .   S
    N3     O7        5.39517      .   S
    Zr6    O8        3.28002      .   S
    N2     O8        5.42624      .   S
    Zr6    O9        3.22358  1_655   S
    N3     O9        5.36912      .   S
    Zr6    O10       3.28060      .   S
    N2     O10       5.42673  1_556   S
    Zr6    O11       3.25594      .   S
    N4     O11       5.40669      .   S
    Zr6    O12       3.23143  1_565   S
    N4     O12       5.37986      .   S
    Zr13   O14       3.24749      .   S
    N5     O14       5.39857      .   S
    Zr13   O15       3.28061      .   S
    N1     O15       5.42788  1_554   S
    Zr13   O16       3.23057  1_545   S
    N0     O16       5.37617      .   S
    Zr13   O17       3.28078      .   S
    N1     O17       5.42816      .   S
    Zr13   O18       3.25256      .   S
    N0     O18       5.39873      .   S
    Zr13   O19       3.22908  1_455   S
    N5     O19       5.37807      .   S
