# CIF file generated by openbabel 2.4.90, see http://openbabel.sf.net
data_I
_chemical_name_common ''
_cell_length_a 13.642
_cell_length_b 14.788
_cell_length_c 15.137
_cell_angle_alpha 90
_cell_angle_beta 90.001
_cell_angle_gamma 90
_space_group_name_H-M_alt 'P 1'
_space_group_name_Hall 'P 1'
loop_
    _symmetry_equiv_pos_as_xyz
    x,y,z
loop_
    _atom_site_label
    _atom_site_type_symbol
    _atom_site_fract_x
    _atom_site_fract_y
    _atom_site_fract_z
    _atom_site_occupancy
    C0      C    0.42214   0.14019   0.42254   1.000
    C1      C    0.92210   0.14014   0.42253   1.000
    C2      C    0.45111   0.86237   0.15148   1.000
    C3      C    0.95114   0.86242   0.15136   1.000
    C4      C    0.32786   0.85978   0.92255   1.000
    C5      C    0.82786   0.85978   0.92254   1.000
    C6      C    0.29890   0.13758   0.65140   1.000
    C7      C    0.79888   0.13757   0.65140   1.000
    C8      C    0.07791   0.64013   0.07748   1.000
    C9      C    0.57787   0.64017   0.07746   1.000
    C10     C    0.04886   0.36245   0.34867   1.000
    C11     C    0.54887   0.36240   0.34855   1.000
    C12     C    0.17213   0.35980   0.57749   1.000
    C13     C    0.67214   0.35979   0.57745   1.000
    C14     C    0.20113   0.63754   0.84861   1.000
    C15     C    0.70108   0.63760   0.84848   1.000
    O16     O    0.34920   0.19455   0.41876   1.000
    O17     O    0.84920   0.19453   0.41874   1.000
    O18     O    0.49203   0.15299   0.47775   1.000
    O19     O    0.99202   0.15294   0.47773   1.000
    O20     O    0.40327   0.78871   0.15703   1.000
    O21     O    0.90331   0.78874   0.15673   1.000
    O22     O    0.00452   0.88623   0.08655   1.000
    O23     O    0.50440   0.88609   0.08657   1.000
    O24     O    0.40079   0.80541   0.91876   1.000
    O25     O    0.90079   0.80542   0.91877   1.000
    O26     O    0.25797   0.84699   0.97776   1.000
    O27     O    0.75795   0.84698   0.97774   1.000
    O28     O    0.34674   0.21124   0.65690   1.000
    O29     O    0.84671   0.21123   0.65694   1.000
    O30     O    0.24558   0.11381   0.58660   1.000
    O31     O    0.74557   0.11382   0.58656   1.000
    O32     O    0.15081   0.69452   0.08126   1.000
    O33     O    0.65081   0.69452   0.08124   1.000
    O34     O    0.00799   0.65292   0.02228   1.000
    O35     O    0.50797   0.65298   0.02226   1.000
    O36     O    0.09669   0.28877   0.34330   1.000
    O37     O    0.59672   0.28874   0.34306   1.000
    O38     O    0.49558   0.38615   0.41344   1.000
    O39     O    0.99548   0.38626   0.41348   1.000
    O40     O    0.09921   0.30543   0.58127   1.000
    O41     O    0.59922   0.30541   0.58126   1.000
    O42     O    0.24204   0.34700   0.52200   1.000
    O43     O    0.74204   0.34698   0.52225   1.000
    O44     O    0.15329   0.71121   0.84316   1.000
    O45     O    0.65323   0.71125   0.84296   1.000
    O46     O    0.25446   0.61378   0.91348   1.000
    O47     O    0.75438   0.61386   0.91337   1.000
loop_
    _geom_bond_atom_site_label_1
    _geom_bond_atom_site_label_2
    _geom_bond_distance
    _geom_bond_site_symmetry_2
    _ccdc_geom_bond_type
    O35    C9        1.28193      .   S
    O34    C8        1.28201      .   S
    C9     O33       1.28038      .   S
    C8     O32       1.28041      .   S
    O22    C3        1.27149  1_455   S
    O23    C2        1.27153      .   S
    C3     O21       1.27257      .   S
    C2     O20       1.27261      .   S
    O37    C11       1.27261      .   S
    O36    C10       1.27259      .   S
    C11    O38       1.27151      .   S
    C10    O39       1.27150  1_455   S
    O17    C1        1.28040      .   S
    O16    C0        1.28039      .   S
    C1     O19       1.28200      .   S
    C0     O18       1.28191      .   S
    O42    C12       1.28488      .   S
    O43    C13       1.28194      .   S
    C13    O41       1.28040      .   S
    C12    O40       1.28041      .   S
    O31    C7        1.27102      .   S
    O30    C6        1.27070      .   S
    C6     O28       1.27262      .   S
    C7     O29       1.27264      .   S
    O45    C15       1.27260      .   S
    O44    C14       1.27260      .   S
    C15    O47       1.27152      .   S
    C14    O46       1.27159      .   S
    O24    C4        1.28039      .   S
    O25    C5        1.28041      .   S
    C5     O27       1.28201      .   S
    C4     O26       1.28197      .   S
