# CIF file generated by openbabel 2.4.90, see http://openbabel.sf.net
data_I
_chemical_name_common ''
_cell_length_a 13.642
_cell_length_b 14.788
_cell_length_c 15.137
_cell_angle_alpha 90
_cell_angle_beta 90.001
_cell_angle_gamma 90
_space_group_name_H-M_alt 'P 1'
_space_group_name_Hall 'P 1'
loop_
    _symmetry_equiv_pos_as_xyz
    x,y,z
loop_
    _atom_site_label
    _atom_site_type_symbol
    _atom_site_fract_x
    _atom_site_fract_y
    _atom_site_fract_z
    _atom_site_occupancy
    Sr0     Sr   0.92060   0.30612   0.53958   1.000
    Sr1     Sr   0.32941   0.69384   0.03960   1.000
    Sr2     Sr   0.82940   0.69377   0.03951   1.000
    Sr3     Sr   0.07940   0.80612   0.96046   1.000
    Sr4     Sr   0.57940   0.80612   0.96042   1.000
    Sr5     Sr   0.17061   0.19379   0.46049   1.000
    Sr6     Sr   0.67060   0.19383   0.46041   1.000
    Sr7     Sr   0.42061   0.30616   0.53959   1.000
