# CIF file generated by openbabel 2.4.90, see http://openbabel.sf.net
data_I
_chemical_name_common ''
_cell_length_a 13.642
_cell_length_b 14.788
_cell_length_c 15.137
_cell_angle_alpha 90
_cell_angle_beta 90.001
_cell_angle_gamma 90
_space_group_name_H-M_alt 'P 1'
_space_group_name_Hall 'P 1'
loop_
    _symmetry_equiv_pos_as_xyz
    x,y,z
loop_
    _atom_site_label
    _atom_site_type_symbol
    _atom_site_fract_x
    _atom_site_fract_y
    _atom_site_fract_z
    _atom_site_occupancy
    Zr0     Zr   0.42061   0.30616   0.53959   1.000
    Zr1     Zr   0.92060   0.30612   0.53958   1.000
    Zr2     Zr   0.32941   0.69384   0.03960   1.000
    Zr3     Zr   0.82940   0.69377   0.03951   1.000
    Zr4     Zr   0.07940   0.80612   0.96046   1.000
    Zr5     Zr   0.57940   0.80612   0.96042   1.000
    Zr6     Zr   0.17061   0.19379   0.46049   1.000
    Zr7     Zr   0.67060   0.19383   0.46041   1.000
    N8      N    0.78338   0.06689   0.85619   1.000
    N9      N    0.03346   0.43304   0.14387   1.000
    N10     N    0.46664   0.93288   0.35620   1.000
    N11     N    0.71664   0.56688   0.64377   1.000
    N12     N    0.21661   0.56690   0.64384   1.000
    N13     N    0.28339   0.06690   0.85621   1.000
    N14     N    0.95895   0.93283   0.35616   1.000
    N15     N    0.53336   0.43309   0.14381   1.000
    C16     C    0.54706   0.34577   0.36835   1.000
    O17     O    0.50258   0.34596   0.42243   1.000
    O18     O    0.59036   0.29353   0.38504   1.000
    O19     O    0.54516   0.38011   0.29790   1.000
    C20     C    0.92111   0.16254   0.43967   1.000
    O21     O    0.93143   0.08991   0.40657   1.000
    O22     O    0.00121   0.16795   0.45439   1.000
    O23     O    0.84050   0.17836   0.43962   1.000
    C24     C    0.17112   0.33741   0.56025   1.000
    O25     O    0.18335   0.40999   0.59340   1.000
    O26     O    0.09051   0.32159   0.56034   1.000
    O27     O    0.25122   0.33200   0.54552   1.000
    C28     C    0.42112   0.16258   0.43968   1.000
    O29     O    0.34052   0.17837   0.43965   1.000
    O30     O    0.43337   0.08995   0.40659   1.000
    O31     O    0.50122   0.16799   0.45438   1.000
    C32     C    0.67113   0.33740   0.56032   1.000
    O33     O    0.68337   0.40997   0.59340   1.000
    O34     O    0.59052   0.32159   0.56037   1.000
    O35     O    0.75123   0.33197   0.54562   1.000
    C36     C    0.04701   0.34583   0.36848   1.000
    O37     O    0.00253   0.34601   0.42251   1.000
    O38     O    0.04517   0.38013   0.29800   1.000
    O39     O    0.09033   0.29355   0.38519   1.000
    C40     C    0.29707   0.15421   0.63163   1.000
    O41     O    0.29518   0.11987   0.70210   1.000
    O42     O    0.34037   0.20646   0.61494   1.000
    O43     O    0.25259   0.15401   0.57759   1.000
    C44     C    0.79705   0.15421   0.63163   1.000
    O45     O    0.84036   0.20644   0.61495   1.000
    O46     O    0.75257   0.15402   0.57756   1.000
    O47     O    0.79517   0.11987   0.70209   1.000
    C48     C    0.20296   0.65418   0.86842   1.000
    O49     O    0.20484   0.61985   0.79795   1.000
    O50     O    0.15965   0.70642   0.88511   1.000
    O51     O    0.24745   0.65399   0.92248   1.000
    C52     C    0.95299   0.84580   0.13155   1.000
    O53     O    0.95294   0.88006   0.20203   1.000
    O54     O    0.99748   0.84599   0.07753   1.000
    O55     O    0.90967   0.79353   0.11483   1.000
    C56     C    0.45293   0.84572   0.13169   1.000
    O57     O    0.40963   0.79350   0.11500   1.000
    O58     O    0.49741   0.84591   0.07759   1.000
    O59     O    0.45483   0.88003   0.20213   1.000
    C60     C    0.82887   0.83739   0.93968   1.000
    O61     O    0.74877   0.83197   0.95438   1.000
    O62     O    0.81663   0.90997   0.90659   1.000
    O63     O    0.90948   0.82158   0.93965   1.000
    C64     C    0.70290   0.65424   0.86827   1.000
    O65     O    0.65960   0.70646   0.88498   1.000
    O66     O    0.74739   0.65403   0.92235   1.000
    O67     O    0.70481   0.61988   0.79783   1.000
    C68     C    0.07890   0.66252   0.06034   1.000
    O69     O    0.15951   0.67835   0.06039   1.000
    O70     O    0.06669   0.58995   0.09344   1.000
    O71     O    0.99880   0.66793   0.04562   1.000
    C72     C    0.32887   0.83739   0.93969   1.000
    O73     O    0.40948   0.82158   0.93964   1.000
    O74     O    0.31664   0.90997   0.90660   1.000
    O75     O    0.24878   0.83197   0.95440   1.000
    C76     C    0.57889   0.66255   0.06032   1.000
    O77     O    0.49879   0.66798   0.04563   1.000
    O78     O    0.56664   0.58999   0.09341   1.000
    O79     O    0.65950   0.67835   0.06035   1.000
    O80     O    0.92086   0.20123   0.46679   1.000
    O81     O    0.07915   0.70122   0.03323   1.000
    O82     O    0.67087   0.29870   0.53320   1.000
    O83     O    0.57914   0.70124   0.03320   1.000
    O84     O    0.42087   0.20127   0.46680   1.000
    O85     O    0.82913   0.79869   0.96678   1.000
    O86     O    0.32913   0.79871   0.96681   1.000
    O87     O    0.17087   0.29871   0.53316   1.000
loop_
    _geom_bond_atom_site_label_1
    _geom_bond_atom_site_label_2
    _geom_bond_distance
    _geom_bond_site_symmetry_2
    _ccdc_geom_bond_type
    C16    O17       1.01904      .   S
    Zr0    O17       2.17760      .   S
    C16    O18       1.00479      .   S
    Zr7    O18       2.16181      .   S
    C16    O19       1.18150      .   S
    N15    O19       2.46571      .   S
    C20    O21       1.19347      .   S
    N14    O21       2.47362  1_565   S
    C20    O22       1.11813  1_655   S
    Zr6    O22       2.34417      .   S
    C20    O23       1.12421      .   S
    Zr7    O23       2.35026      .   S
    C24    O25       1.19638      .   S
    N12    O25       2.48458      .   S
    C24    O26       1.12429      .   S
    Zr1    O26       2.35031  1_655   S
    C24    O27       1.11811      .   S
    Zr0    O27       2.34387      .   S
    C28    O29       1.12420      .   S
    Zr6    O29       2.35028      .   S
    C28    O30       1.19677      .   S
    N10    O30       2.48660  1_565   S
    C28    O31       1.11795      .   S
    Zr7    O31       2.34381      .   S
    C32    O33       1.19602      .   S
    N11    O33       2.48429      .   S
    C32    O34       1.12423      .   S
    Zr0    O34       2.35035      .   S
    C32    O35       1.11795      .   S
    Zr1    O35       2.34380      .   S
    C36    O37       1.01835      .   S
    Zr1    O37       2.17660  1_655   S
    C36    O38       1.18161      .   S
    N9     O38       2.46600      .   S
    C36    O39       1.00536      .   S
    Zr6    O39       2.16221      .   S
    C40    O41       1.18160      .   S
    N13    O41       2.46607      .   S
    C40    O42       1.00483      .   S
    Zr0    O42       2.16163      .   S
    C40    O43       1.01861      .   S
    Zr6    O43       2.17679      .   S
    C44    O45       1.00470      .   S
    Zr1    O45       2.16163      .   S
    C44    O46       1.01895      .   S
    Zr7    O46       2.17750      .   S
    C44    O47       1.18148      .   S
    N8     O47       2.46589      .   S
    C48    O49       1.18156      .   S
    N12    O49       2.46588      .   S
    C48    O50       1.00490      .   S
    Zr4    O50       2.16176      .   S
    C48    O51       1.01882      .   S
    Zr2    O51       2.17727  1_554   S
    C52    O53       1.18105      .   S
    N14    O53       2.46151      .   S
    C52    O54       1.01831      .   S
    Zr4    O54       2.17639  1_456   S
    C52    O55       1.00534      .   S
    Zr3    O55       2.16229      .   S
    C56    O57       1.00451      .   S
    Zr2    O57       2.16157      .   S
    C56    O58       1.01927      .   S
    Zr5    O58       2.17790  1_556   S
    C56    O59       1.18108      .   S
    N10    O59       2.46485      .   S
    C60    O61       1.11800      .   S
    Zr5    O61       2.34385      .   S
    C60    O62       1.19613      .   S
    N8     O62       2.48455  1_545   S
    C60    O63       1.12430      .   S
    Zr4    O63       2.35041  1_455   S
    C64    O65       1.00458      .   S
    Zr5    O65       2.16172      .   S
    C64    O66       1.01918      .   S
    Zr3    O66       2.17755  1_554   S
    C64    O67       1.18136      .   S
    N11    O67       2.46549      .   S
    C68    O69       1.12425      .   S
    Zr2    O69       2.35029      .   S
    C68    O70       1.19610      .   S
    N9     O70       2.48440      .   S
    C68    O71       1.11812  1_455   S
    Zr3    O71       2.34412      .   S
    C72    O73       1.12426      .   S
    Zr5    O73       2.35035      .   S
    C72    O74       1.19609      .   S
    N13    O74       2.48449  1_545   S
    C72    O75       1.11800      .   S
    Zr4    O75       2.34391      .   S
    C76    O77       1.11797      .   S
    Zr2    O77       2.34384      .   S
    C76    O78       1.19596      .   S
    N15    O78       2.48429      .   S
    C76    O79       1.12422      .   S
    Zr3    O79       2.35031      .   S
    C20    O80       0.70426      .   S
    Zr1    O80       1.90263      .   S
    Zr4    O81       1.90256  1_556   S
    C68    O81       0.70424      .   S
    Zr7    O82       1.90247      .   S
    C32    O82       0.70420      .   S
    Zr5    O83       1.90236  1_556   S
    C76    O83       0.70416      .   S
    Zr0    O84       1.90255      .   S
    C28    O84       0.70422      .   S
    Zr3    O85       1.90246  1_554   S
    C60    O85       0.70420      .   S
    Zr2    O86       1.90236  1_554   S
    C72    O86       0.70416      .   S
    Zr6    O87       1.90191      .   S
    C24    O87       0.70416      .   S
