# CIF file generated by openbabel 2.4.90, see http://openbabel.sf.net
data_I
_chemical_name_common ''
_cell_length_a 13.642
_cell_length_b 14.788
_cell_length_c 15.137
_cell_angle_alpha 90
_cell_angle_beta 90.001
_cell_angle_gamma 90
_space_group_name_H-M_alt 'P 1'
_space_group_name_Hall 'P 1'
loop_
    _symmetry_equiv_pos_as_xyz
    x,y,z
loop_
    _atom_site_label
    _atom_site_type_symbol
    _atom_site_fract_x
    _atom_site_fract_y
    _atom_site_fract_z
    _atom_site_occupancy
    C0      C    0.42061   0.30616   0.53959   1.000
    C1      C    0.92060   0.30612   0.53958   1.000
    C2      C    0.32941   0.69384   0.03960   1.000
    C3      C    0.82940   0.69377   0.03951   1.000
    C4      C    0.07940   0.80612   0.96046   1.000
    C5      C    0.57940   0.80612   0.96042   1.000
    C6      C    0.17061   0.19379   0.46049   1.000
    C7      C    0.67060   0.19383   0.46041   1.000
    C8      C    0.37324   0.14871   0.25574   1.000
    C9      C    0.87311   0.14866   0.25570   1.000
    C10     C    0.39542   0.03308   0.13747   1.000
    C11     C    0.89532   0.03307   0.13745   1.000
    C12     C    0.48560   0.00000   0.52199   1.000
    C13     C    0.98555   0.00000   0.52194   1.000
    C14     C    0.54456   0.72888   0.44350   1.000
    C15     C    0.00000   0.72881   0.44351   1.000
    C16     C    0.49718   0.76517   0.28945   1.000
    C17     C    0.99709   0.76511   0.28938   1.000
    C18     C    0.53829   0.84833   0.55958   1.000
    C19     C    0.00000   0.84826   0.55952   1.000
    C20     C    0.37681   0.85126   0.75577   1.000
    C21     C    0.87680   0.85126   0.75576   1.000
    C22     C    0.35461   0.96689   0.63749   1.000
    C23     C    0.85463   0.96688   0.63748   1.000
    C24     C    0.26438   0.99670   0.02196   1.000
    C25     C    0.76439   0.99672   0.02195   1.000
    C26     C    0.20549   0.27111   0.94358   1.000
    C27     C    0.70546   0.27111   0.94354   1.000
    C28     C    0.25291   0.23483   0.78946   1.000
    C29     C    0.75285   0.23481   0.78941   1.000
    C30     C    0.21169   0.15164   0.05955   1.000
    C31     C    0.71169   0.15166   0.05953   1.000
    C32     C    0.12694   0.64865   0.24425   1.000
    C33     C    0.62678   0.64870   0.24426   1.000
    C34     C    0.10474   0.53307   0.36256   1.000
    C35     C    0.60459   0.53308   0.36254   1.000
    C36     C    0.01444   0.50320   0.97810   1.000
    C37     C    0.51436   0.50328   0.97806   1.000
    C38     C    0.95555   0.22881   0.05654   1.000
    C39     C    0.45542   0.22889   0.05646   1.000
    C40     C    0.00294   0.26514   0.21066   1.000
    C41     C    0.50284   0.26518   0.21058   1.000
    C42     C    0.96176   0.34825   0.94054   1.000
    C43     C    0.46165   0.34834   0.94047   1.000
    C44     C    0.12315   0.35129   0.74420   1.000
    C45     C    0.62322   0.35128   0.74423   1.000
    C46     C    0.14534   0.46689   0.86256   1.000
    C47     C    0.64540   0.46692   0.86250   1.000
    C48     C    0.23563   0.49671   0.47807   1.000
    C49     C    0.73564   0.49668   0.47800   1.000
    C50     C    0.29453   0.77111   0.55651   1.000
    C51     C    0.79459   0.77107   0.55641   1.000
    C52     C    0.24712   0.73481   0.71063   1.000
    C53     C    0.74715   0.73480   0.71053   1.000
    C54     C    0.28832   0.65165   0.44050   1.000
    C55     C    0.78834   0.65161   0.44041   1.000
    C56     C    0.42705   0.06336   0.35904   1.000
    C57     C    0.92698   0.06332   0.35902   1.000
    C58     C    0.46154   0.97506   0.38300   1.000
    C59     C    0.96147   0.97500   0.38298   1.000
    C60     C    0.40019   0.08142   0.27235   1.000
    C61     C    0.90008   0.08138   0.27234   1.000
    C62     C    0.46592   0.90605   0.31574   1.000
    C63     C    0.96583   0.90600   0.31568   1.000
    C64     C    0.42214   0.14019   0.42254   1.000
    C65     C    0.92210   0.14014   0.42253   1.000
    C66     C    0.41131   0.01591   0.20601   1.000
    C67     C    0.91120   0.01588   0.20598   1.000
    C68     C    0.44256   0.92922   0.22641   1.000
    C69     C    0.94249   0.92920   0.22635   1.000
    C70     C    0.45111   0.86237   0.15148   1.000
    C71     C    0.95114   0.86242   0.15136   1.000
    C72     C    0.48819   0.95150   0.47097   1.000
    C73     C    0.98813   0.95143   0.47092   1.000
    C74     C    0.52150   0.79717   0.42601   1.000
    C75     C    0.00000   0.79711   0.42594   1.000
    C76     C    0.49602   0.81739   0.34010   1.000
    C77     C    0.99593   0.81733   0.34004   1.000
    C78     C    0.51768   0.86483   0.49184   1.000
    C79     C    0.00000   0.86476   0.49178   1.000
    C80     C    0.32299   0.93662   0.85906   1.000
    C81     C    0.82295   0.93661   0.85904   1.000
    C82     C    0.28847   0.02492   0.88303   1.000
    C83     C    0.78849   0.02493   0.88302   1.000
    C84     C    0.34984   0.91855   0.77237   1.000
    C85     C    0.84986   0.91855   0.77236   1.000
    C86     C    0.28416   0.09394   0.81570   1.000
    C87     C    0.78408   0.09392   0.81570   1.000
    C88     C    0.32786   0.85978   0.92255   1.000
    C89     C    0.82786   0.85978   0.92254   1.000
    C90     C    0.33875   0.98407   0.70603   1.000
    C91     C    0.83872   0.98405   0.70601   1.000
    C92     C    0.30748   0.07075   0.72642   1.000
    C93     C    0.80749   0.07075   0.72639   1.000
    C94     C    0.29890   0.13758   0.65140   1.000
    C95     C    0.79888   0.13757   0.65140   1.000
    C96     C    0.26182   0.04848   0.97098   1.000
    C97     C    0.76179   0.04849   0.97095   1.000
    C98     C    0.22856   0.20282   0.92601   1.000
    C99     C    0.72850   0.20281   0.92597   1.000
    C100    C    0.25403   0.18260   0.84011   1.000
    C101    C    0.75401   0.18260   0.84008   1.000
    C102    C    0.23231   0.13514   0.99180   1.000
    C103    C    0.73232   0.13516   0.99181   1.000
    C104    C    0.07305   0.56330   0.14098   1.000
    C105    C    0.57296   0.56335   0.14090   1.000
    C106    C    0.03854   0.47501   0.11704   1.000
    C107    C    0.53845   0.47507   0.11699   1.000
    C108    C    0.09995   0.58137   0.22767   1.000
    C109    C    0.59982   0.58141   0.22766   1.000
    C110    C    0.03418   0.40601   0.18435   1.000
    C111    C    0.53409   0.40606   0.18428   1.000
    C112    C    0.07791   0.64013   0.07748   1.000
    C113    C    0.57787   0.64017   0.07746   1.000
    C114    C    0.08884   0.51588   0.29403   1.000
    C115    C    0.58871   0.51590   0.29400   1.000
    C116    C    0.05753   0.42922   0.27368   1.000
    C117    C    0.55745   0.42924   0.27360   1.000
    C118    C    0.04886   0.36245   0.34867   1.000
    C119    C    0.54887   0.36240   0.34855   1.000
    C120    C    0.01188   0.45143   0.02910   1.000
    C121    C    0.51179   0.45151   0.02905   1.000
    C122    C    0.97860   0.29711   0.07410   1.000
    C123    C    0.47849   0.29718   0.07402   1.000
    C124    C    0.00408   0.31735   0.16000   1.000
    C125    C    0.50398   0.31740   0.15992   1.000
    C126    C    0.98239   0.36476   0.00826   1.000
    C127    C    0.48229   0.36484   0.00819   1.000
    C128    C    0.17701   0.43663   0.64099   1.000
    C129    C    0.67702   0.43663   0.64093   1.000
    C130    C    0.21152   0.52492   0.61703   1.000
    C131    C    0.71156   0.52490   0.61696   1.000
    C132    C    0.15012   0.41857   0.72767   1.000
    C133    C    0.65018   0.41856   0.72763   1.000
    C134    C    0.21588   0.59392   0.68432   1.000
    C135    C    0.71586   0.59393   0.68423   1.000
    C136    C    0.17213   0.35980   0.57749   1.000
    C137    C    0.67214   0.35979   0.57745   1.000
    C138    C    0.16123   0.48407   0.79400   1.000
    C139    C    0.66126   0.48409   0.79396   1.000
    C140    C    0.19252   0.57073   0.77365   1.000
    C141    C    0.69254   0.57074   0.77356   1.000
    C142    C    0.20113   0.63754   0.84861   1.000
    C143    C    0.70108   0.63760   0.84848   1.000
    C144    C    0.23819   0.54848   0.52909   1.000
    C145    C    0.73819   0.54846   0.52900   1.000
    C146    C    0.27147   0.70281   0.57407   1.000
    C147    C    0.77150   0.70279   0.57397   1.000
    C148    C    0.24598   0.68259   0.65997   1.000
    C149    C    0.74603   0.68257   0.65988   1.000
    C150    C    0.26769   0.63515   0.50824   1.000
    C151    C    0.76772   0.63511   0.50815   1.000
    C152    C    0.34920   0.19455   0.41876   1.000
    C153    C    0.84920   0.19453   0.41874   1.000
    C154    C    0.49203   0.15299   0.47775   1.000
    C155    C    0.99202   0.15294   0.47773   1.000
    C156    C    0.40327   0.78871   0.15703   1.000
    C157    C    0.90331   0.78874   0.15673   1.000
    C158    C    0.00452   0.88623   0.08655   1.000
    C159    C    0.50440   0.88609   0.08657   1.000
    C160    C    0.40079   0.80541   0.91876   1.000
    C161    C    0.90079   0.80542   0.91877   1.000
    C162    C    0.25797   0.84699   0.97776   1.000
    C163    C    0.75795   0.84698   0.97774   1.000
    C164    C    0.34674   0.21124   0.65690   1.000
    C165    C    0.84671   0.21123   0.65694   1.000
    C166    C    0.24558   0.11381   0.58660   1.000
    C167    C    0.74557   0.11382   0.58656   1.000
    C168    C    0.15081   0.69452   0.08126   1.000
    C169    C    0.65081   0.69452   0.08124   1.000
    C170    C    0.00799   0.65292   0.02228   1.000
    C171    C    0.50797   0.65298   0.02226   1.000
    C172    C    0.09669   0.28877   0.34330   1.000
    C173    C    0.59672   0.28874   0.34306   1.000
    C174    C    0.49558   0.38615   0.41344   1.000
    C175    C    0.99548   0.38626   0.41348   1.000
    C176    C    0.09921   0.30543   0.58127   1.000
    C177    C    0.59922   0.30541   0.58126   1.000
    C178    C    0.24204   0.34700   0.52200   1.000
    C179    C    0.74204   0.34698   0.52225   1.000
    C180    C    0.15329   0.71121   0.84316   1.000
    C181    C    0.65323   0.71125   0.84296   1.000
    C182    C    0.25446   0.61378   0.91348   1.000
    C183    C    0.75438   0.61386   0.91337   1.000
    O184    O    0.49704   0.40818   0.01862   1.000
    O185    O    0.48039   0.33101   0.04111   1.000
    O186    O    0.47197   0.35659   0.97433   1.000
    O187    O    0.99713   0.40810   0.01868   1.000
    O188    O    0.98050   0.33094   0.04118   1.000
    O189    O    0.97207   0.35651   0.97440   1.000
    O190    O    0.76309   0.02260   0.99645   1.000
    O191    O    0.26310   0.02259   0.99647   1.000
    O192    O    0.54292   0.64657   0.04986   1.000
    O193    O    0.04295   0.64652   0.04988   1.000
    O194    O    0.52512   0.46329   0.07302   1.000
    O195    O    0.51308   0.47739   0.00356   1.000
    O196    O    0.02521   0.46322   0.07307   1.000
    O197    O    0.01316   0.47732   0.00360   1.000
    O198    O    0.86636   0.74126   0.09812   1.000
    O199    O    0.79189   0.65382   0.97644   1.000
    O200    O    0.36634   0.74128   0.09832   1.000
    O201    O    0.29193   0.65381   0.97654   1.000
    O202    O    0.46696   0.26304   0.06524   1.000
    O203    O    0.96708   0.26296   0.06532   1.000
    O204    O    0.72201   0.14341   0.02567   1.000
    O205    O    0.22200   0.14339   0.02568   1.000
    O206    O    0.49124   0.30729   0.11697   1.000
    O207    O    0.99134   0.30723   0.11705   1.000
    O208    O    0.61434   0.66734   0.07935   1.000
    O209    O    0.57542   0.60176   0.10918   1.000
    O210    O    0.11436   0.66732   0.07937   1.000
    O211    O    0.07548   0.60171   0.10923   1.000
    O212    O    0.97783   0.87433   0.11896   1.000
    O213    O    0.04196   0.84617   0.02351   1.000
    O214    O    0.47775   0.87423   0.11903   1.000
    O215    O    0.54190   0.84610   0.02350   1.000
    O216    O    0.55571   0.51921   0.12895   1.000
    O217    O    0.53627   0.44056   0.15064   1.000
    O218    O    0.05579   0.51916   0.12901   1.000
    O219    O    0.03636   0.44051   0.15070   1.000
    O220    O    0.90326   0.02448   0.17172   1.000
    O221    O    0.40336   0.02449   0.17174   1.000
    O222    O    0.58639   0.57238   0.18428   1.000
    O223    O    0.08650   0.57234   0.18433   1.000
    O224    O    0.92723   0.82558   0.15404   1.000
    O225    O    0.94682   0.89581   0.18885   1.000
    O226    O    0.42719   0.82554   0.15426   1.000
    O227    O    0.44684   0.89580   0.18895   1.000
    O228    O    0.51904   0.36173   0.17210   1.000
    O229    O    0.50341   0.29129   0.18525   1.000
    O230    O    0.01913   0.36168   0.17218   1.000
    O231    O    0.00351   0.29124   0.18533   1.000
    O232    O    0.54577   0.41765   0.22894   1.000
    O233    O    0.04586   0.41762   0.22902   1.000
    O234    O    0.92685   0.97254   0.21617   1.000
    O235    O    0.90564   0.04863   0.23916   1.000
    O236    O    0.42693   0.97257   0.21621   1.000
    O237    O    0.40575   0.04867   0.23918   1.000
    O238    O    0.95416   0.91760   0.27102   1.000
    O239    O    0.45424   0.91763   0.27108   1.000
    O240    O    0.61330   0.61505   0.23596   1.000
    O241    O    0.59427   0.54866   0.26083   1.000
    O242    O    0.11345   0.61501   0.23596   1.000
    O243    O    0.09440   0.54863   0.26085   1.000
    O244    O    0.88660   0.11502   0.26402   1.000
    O245    O    0.38672   0.11507   0.26404   1.000
    O246    O    0.91353   0.07235   0.31568   1.000
    O247    O    0.41362   0.07239   0.31570   1.000
    O248    O    0.57308   0.47257   0.28380   1.000
    O249    O    0.55316   0.39582   0.31107   1.000
    O250    O    0.07319   0.47255   0.28386   1.000
    O251    O    0.05320   0.39584   0.31117   1.000
    O252    O    0.99651   0.79122   0.31471   1.000
    O253    O    0.49660   0.79128   0.31478   1.000
    O254    O    0.59665   0.52449   0.32827   1.000
    O255    O    0.09679   0.52448   0.32830   1.000
    O256    O    0.98088   0.86166   0.32786   1.000
    O257    O    0.96365   0.94050   0.34933   1.000
    O258    O    0.48097   0.86172   0.32792   1.000
    O259    O    0.46373   0.94055   0.34937   1.000
    O260    O    0.99797   0.80722   0.38299   1.000
    O261    O    0.50876   0.80728   0.38306   1.000
    O262    O    0.57280   0.32557   0.34581   1.000
    O263    O    0.63366   0.24129   0.40174   1.000
    O264    O    0.07278   0.32561   0.34599   1.000
    O265    O    0.13365   0.24128   0.40190   1.000
    O266    O    0.52223   0.37428   0.38100   1.000
    O267    O    0.02217   0.37435   0.38107   1.000
    O268    O    0.94422   0.01916   0.37100   1.000
    O269    O    0.92454   0.10173   0.39078   1.000
    O270    O    0.44429   0.01921   0.37102   1.000
    O271    O    0.42459   0.10178   0.39079   1.000
    O272    O    0.97480   0.96321   0.42695   1.000
    O273    O    0.47487   0.96328   0.42699   1.000
    O274    O    0.45809   0.34616   0.47652   1.000
    O275    O    0.95804   0.34619   0.47653   1.000
    O276    O    0.88565   0.16734   0.42064   1.000
    O277    O    0.38567   0.16737   0.42065   1.000
    O278    O    0.95706   0.14654   0.45013   1.000
    O279    O    0.45709   0.14659   0.45015   1.000
    O280    O    0.00000   0.76296   0.43473   1.000
    O281    O    0.00000   0.83093   0.45886   1.000
    O282    O    0.53303   0.76303   0.43476   1.000
    O283    O    0.51959   0.83100   0.45893   1.000
    O284    O    0.77803   0.64336   0.47428   1.000
    O285    O    0.27801   0.64340   0.47437   1.000
    O286    O    0.70808   0.15383   0.52348   1.000
    O287    O    0.20810   0.15380   0.52355   1.000
    O288    O    0.99406   0.90810   0.48135   1.000
    O289    O    0.98684   0.97571   0.49643   1.000
    O290    O    0.50294   0.90817   0.48141   1.000
    O291    O    0.48690   0.97575   0.49648   1.000
    O292    O    0.73692   0.52257   0.50350   1.000
    O293    O    0.23691   0.52260   0.50358   1.000
    O294    O    0.00000   0.85651   0.52565   1.000
    O295    O    0.52799   0.85658   0.52571   1.000
    O296    O    0.75296   0.59179   0.51858   1.000
    O297    O    0.76961   0.66895   0.54106   1.000
    O298    O    0.25294   0.59182   0.51867   1.000
    O299    O    0.26958   0.66898   0.54116   1.000
    O300    O    0.20708   0.35340   0.54975   1.000
    O301    O    0.70709   0.35339   0.54985   1.000
    O302    O    0.72488   0.53668   0.57298   1.000
    O303    O    0.22486   0.53670   0.57306   1.000
    O304    O    0.88366   0.25868   0.59826   1.000
    O305    O    0.38368   0.25870   0.59825   1.000
    O306    O    0.78304   0.73693   0.56519   1.000
    O307    O    0.28300   0.73696   0.56529   1.000
    O308    O    0.75876   0.69268   0.61692   1.000
    O309    O    0.25873   0.69270   0.61702   1.000
    O310    O    0.63568   0.33260   0.57936   1.000
    O311    O    0.67458   0.39821   0.60919   1.000
    O312    O    0.13567   0.33262   0.57938   1.000
    O313    O    0.17457   0.39822   0.60924   1.000
    O314    O    0.77222   0.12570   0.61898   1.000
    O315    O    0.27224   0.12570   0.61900   1.000
    O316    O    0.69429   0.48076   0.62894   1.000
    O317    O    0.71371   0.55941   0.65059   1.000
    O318    O    0.19426   0.48078   0.62901   1.000
    O319    O    0.21370   0.55942   0.65068   1.000
    O320    O    0.84667   0.97547   0.67175   1.000
    O321    O    0.34668   0.97548   0.67176   1.000
    O322    O    0.66360   0.42760   0.68428   1.000
    O323    O    0.16356   0.42760   0.68433   1.000
    O324    O    0.32282   0.17441   0.65415   1.000
    O325    O    0.30319   0.10417   0.68891   1.000
    O326    O    0.82280   0.17440   0.65417   1.000
    O327    O    0.80318   0.10416   0.68889   1.000
    O328    O    0.73095   0.63825   0.67205   1.000
    O329    O    0.74659   0.70869   0.68521   1.000
    O330    O    0.23093   0.63826   0.67214   1.000
    O331    O    0.24655   0.70870   0.68530   1.000
    O332    O    0.70420   0.58233   0.72890   1.000
    O333    O    0.20420   0.58233   0.72899   1.000
    O334    O    0.82310   0.02740   0.71620   1.000
    O335    O    0.84429   0.95130   0.73918   1.000
    O336    O    0.32312   0.02741   0.71623   1.000
    O337    O    0.34430   0.95131   0.73920   1.000
    O338    O    0.79578   0.08233   0.77105   1.000
    O339    O    0.29582   0.08235   0.77106   1.000
    O340    O    0.63670   0.38492   0.73593   1.000
    O341    O    0.65572   0.45133   0.76079   1.000
    O342    O    0.13663   0.38493   0.73593   1.000
    O343    O    0.15568   0.45132   0.76084   1.000
    O344    O    0.86333   0.88491   0.76406   1.000
    O345    O    0.36332   0.88491   0.76407   1.000
    O346    O    0.83641   0.92758   0.81570   1.000
    O347    O    0.33642   0.92758   0.81572   1.000
    O348    O    0.67690   0.52741   0.78376   1.000
    O349    O    0.69681   0.60417   0.81102   1.000
    O350    O    0.17688   0.52740   0.78383   1.000
    O351    O    0.19682   0.60414   0.81113   1.000
    O352    O    0.75343   0.20870   0.81475   1.000
    O353    O    0.25347   0.20871   0.81479   1.000
    O354    O    0.65333   0.47550   0.82823   1.000
    O355    O    0.15329   0.47548   0.82828   1.000
    O356    O    0.76905   0.13826   0.82789   1.000
    O357    O    0.78629   0.05943   0.84936   1.000
    O358    O    0.26909   0.13827   0.82791   1.000
    O359    O    0.28631   0.05943   0.84937   1.000
    O360    O    0.74126   0.19270   0.88303   1.000
    O361    O    0.24129   0.19271   0.88306   1.000
    O362    O    0.67715   0.67443   0.84572   1.000
    O363    O    0.61631   0.75869   0.90169   1.000
    O364    O    0.17721   0.67438   0.84588   1.000
    O365    O    0.11634   0.75867   0.90181   1.000
    O366    O    0.72773   0.62573   0.88093   1.000
    O367    O    0.22779   0.62566   0.88105   1.000
    O368    O    0.80572   0.98077   0.87103   1.000
    O369    O    0.82541   0.89820   0.89079   1.000
    O370    O    0.30573   0.98077   0.87105   1.000
    O371    O    0.32543   0.89820   0.89080   1.000
    O372    O    0.77514   0.03671   0.92699   1.000
    O373    O    0.27514   0.03670   0.92701   1.000
    O374    O    0.36433   0.83260   0.92066   1.000
    O375    O    0.86433   0.83260   0.92066   1.000
    O376    O    0.79291   0.85338   0.95014   1.000
    O377    O    0.29292   0.85339   0.95015   1.000
    O378    O    0.71698   0.23696   0.93476   1.000
    O379    O    0.73041   0.16899   0.95889   1.000
    O380    O    0.21702   0.23696   0.93480   1.000
    O381    O    0.23043   0.16898   0.95891   1.000
    O382    O    0.74705   0.09182   0.98138   1.000
    O383    O    0.24707   0.09181   0.98139   1.000
    O384    O    0.38491   0.25035   0.47918   1.000
    O385    O    0.25991   0.19417   0.43963   1.000
    O386    O    0.88490   0.25033   0.47916   1.000
    O387    O    0.75990   0.19418   0.43957   1.000
    O388    O    0.45632   0.22957   0.50867   1.000
    O389    O    0.58132   0.17341   0.46908   1.000
    O390    O    0.95631   0.22953   0.50865   1.000
    O391    O    0.08131   0.17336   0.46911   1.000
    O392    O    0.36510   0.74963   0.97918   1.000
    O393    O    0.49009   0.80576   0.93959   1.000
    O394    O    0.86510   0.74959   0.97914   1.000
    O395    O    0.99010   0.80577   0.93961   1.000
    O396    O    0.29369   0.77041   0.00868   1.000
    O397    O    0.16868   0.82655   0.96911   1.000
    O398    O    0.79368   0.77037   0.00862   1.000
    O399    O    0.66868   0.82655   0.96908   1.000
    O400    O    0.24011   0.69418   0.06043   1.000
    O401    O    0.11510   0.75032   0.02086   1.000
    O402    O    0.74011   0.69414   0.06038   1.000
    O403    O    0.61510   0.75032   0.02083   1.000
    O404    O    0.91870   0.67334   0.03090   1.000
    O405    O    0.04369   0.72952   0.99137   1.000
    O406    O    0.41869   0.67341   0.03093   1.000
    O407    O    0.54368   0.72955   0.99134   1.000
    O408    O    0.00990   0.30577   0.56043   1.000
    O409    O    0.13491   0.24961   0.52088   1.000
    O410    O    0.50992   0.30579   0.56043   1.000
    O411    O    0.63491   0.24962   0.52084   1.000
    O412    O    0.33132   0.32658   0.53080   1.000
    O413    O    0.20632   0.27040   0.49125   1.000
    O414    O    0.83132   0.32655   0.53092   1.000
    O415    O    0.70632   0.27040   0.49133   1.000
loop_
    _geom_bond_atom_site_label_1
    _geom_bond_atom_site_label_2
    _geom_bond_distance
    _geom_bond_site_symmetry_2
    _ccdc_geom_bond_type
    C127   O184      0.68994      .   S
    C121   O184      0.68994      .   S
    C127   O185      0.70655      .   S
    C123   O185      0.70655      .   S
    C127   O186      0.54534  1_554   S
    C43    O186      0.54534      .   S
    C126   O187      0.68993      .   S
    C120   O187      0.68993  1_455   S
    C126   O188      0.70654      .   S
    C122   O188      0.70654      .   S
    C126   O189      0.54535  1_554   S
    C42    O189      0.54535      .   S
    C25    O190      0.54387  1_564   S
    C97    O190      0.54387      .   S
    C24    O191      0.54382  1_564   S
    C96    O191      0.54382      .   S
    C171   O192      0.64097      .   S
    C113   O192      0.64097      .   S
    C170   O193      0.64101      .   S
    C112   O193      0.64101      .   S
    C121   O194      0.71162      .   S
    C107   O194      0.71162      .   S
    C121   O195      0.54384      .   S
    C37    O195      0.54384  1_556   S
    C120   O196      0.71165      .   S
    C106   O196      0.71165      .   S
    C120   O197      0.54386      .   S
    C36    O197      0.54386  1_556   S
    C3     O198      1.23871      .   S
    C157   O198      1.23871      .   S
    C3     O199      1.23381  1_554   S
    C183   O199      1.23381      .   S
    C2     O200      1.23926      .   S
    C156   O200      1.23926      .   S
    C2     O201      1.23407  1_554   S
    C182   O201      1.23407      .   S
    C39    O202      0.54534      .   S
    C123   O202      0.54534      .   S
    C38    O203      0.54535      .   S
    C122   O203      0.54535      .   S
    C31    O204      0.54533      .   S
    C103   O204      0.54533  1_556   S
    C30    O205      0.54552      .   S
    C102   O205      0.54552  1_556   S
    C123   O206      0.68937      .   S
    C125   O206      0.68937      .   S
    C122   O207      0.68939      .   S
    C124   O207      0.68939  1_455   S
    C113   O208      0.64019      .   S
    C169   O208      0.64019      .   S
    C113   O209      0.74450      .   S
    C105   O209      0.74450      .   S
    C112   O210      0.64020      .   S
    C168   O210      0.64020      .   S
    C112   O211      0.74482      .   S
    C104   O211      0.74482      .   S
    C158   O212      0.63574  1_455   S
    C71    O212      0.63574      .   S
    C158   O213      1.23386      .   S
    C4     O213      1.23386  1_556   S
    C159   O214      0.63576      .   S
    C70    O214      0.63576      .   S
    C159   O215      1.23408      .   S
    C5     O215      1.23408  1_556   S
    C107   O216      0.71711      .   S
    C105   O216      0.71711      .   S
    C107   O217      0.72153      .   S
    C111   O217      0.72153      .   S
    C106   O218      0.71722      .   S
    C104   O218      0.71722      .   S
    C106   O219      0.72157      .   S
    C110   O219      0.72157      .   S
    C11    O220      0.54488      .   S
    C67    O220      0.54488      .   S
    C10    O221      0.54493      .   S
    C66    O221      0.54493      .   S
    C105   O222      0.69468      .   S
    C109   O222      0.69468      .   S
    C104   O223      0.69427      .   S
    C108   O223      0.69427      .   S
    C71    O224      0.63629      .   S
    C157   O224      0.63629      .   S
    C71    O225      0.75457      .   S
    C69    O225      0.75457      .   S
    C70    O226      0.63631      .   S
    C156   O226      0.63631      .   S
    C70    O227      0.75456      .   S
    C68    O227      0.75456      .   S
    C125   O228      0.71130      .   S
    C111   O228      0.71130      .   S
    C125   O229      0.54420      .   S
    C41    O229      0.54420      .   S
    C124   O230      0.71130      .   S
    C110   O230      0.71130      .   S
    C124   O231      0.54416      .   S
    C40    O231      0.54416      .   S
    C111   O232      0.71538      .   S
    C117   O232      0.71538      .   S
    C110   O233      0.71548      .   S
    C116   O233      0.71548      .   S
    C67    O234      0.69292  1_545   S
    C69    O234      0.69292      .   S
    C67    O235      0.70181      .   S
    C61    O235      0.70181      .   S
    C66    O236      0.69291  1_545   S
    C68    O236      0.69291      .   S
    C66    O237      0.70178      .   S
    C60    O237      0.70178      .   S
    C69    O238      0.71546      .   S
    C63    O238      0.71546      .   S
    C68    O239      0.71543      .   S
    C62    O239      0.71543      .   S
    C109   O240      0.54509      .   S
    C33    O240      0.54509      .   S
    C109   O241      0.70175      .   S
    C115   O241      0.70175      .   S
    C108   O242      0.54508      .   S
    C32    O242      0.54508      .   S
    C108   O243      0.70177      .   S
    C114   O243      0.70177      .   S
    C9     O244      0.54516      .   S
    C61    O244      0.54516      .   S
    C8     O245      0.54510      .   S
    C60    O245      0.54510      .   S
    C61    O246      0.69417      .   S
    C57    O246      0.69417      .   S
    C60    O247      0.69416      .   S
    C56    O247      0.69416      .   S
    C117   O248      0.69275      .   S
    C115   O248      0.69275      .   S
    C117   O249      0.75461      .   S
    C119   O249      0.75461      .   S
    C116   O250      0.69273      .   S
    C114   O250      0.69273      .   S
    C116   O251      0.75458      .   S
    C118   O251      0.75458      .   S
    C17    O252      0.54418      .   S
    C77    O252      0.54418      .   S
    C16    O253      0.54415      .   S
    C76    O253      0.54415      .   S
    C115   O254      0.54493      .   S
    C35    O254      0.54493      .   S
    C114   O255      0.54491      .   S
    C34    O255      0.54491      .   S
    C63    O256      0.71130      .   S
    C77    O256      0.71130      .   S
    C63    O257      0.72155      .   S
    C59    O257      0.72155      .   S
    C62    O258      0.71129      .   S
    C76    O258      0.71129      .   S
    C62    O259      0.72138      .   S
    C58    O259      0.72138      .   S
    C77    O260      0.66769      .   S
    C75    O260      0.66769  1_455   S
    C76    O261      0.68941      .   S
    C74    O261      0.68941      .   S
    C173   O262      0.63630      .   S
    C119   O262      0.63630      .   S
    C173   O263      1.23907      .   S
    C7     O263      1.23907      .   S
    C172   O264      0.63630      .   S
    C118   O264      0.63630      .   S
    C172   O265      1.23860      .   S
    C6     O265      1.23860      .   S
    C119   O266      0.63575      .   S
    C174   O266      0.63575      .   S
    C118   O267      0.63575      .   S
    C175   O267      0.63575  1_655   S
    C57    O268      0.71741      .   S
    C59    O268      0.71741  1_565   S
    C57    O269      0.74486      .   S
    C65    O269      0.74486      .   S
    C56    O270      0.71735      .   S
    C58    O270      0.71735  1_565   S
    C56    O271      0.74485      .   S
    C64    O271      0.74485      .   S
    C59    O272      0.71162      .   S
    C73    O272      0.71162      .   S
    C58    O273      0.71181      .   S
    C72    O273      0.71181      .   S
    C174   O274      1.23410      .   S
    C0     O274      1.23410      .   S
    C175   O275      1.23405      .   S
    C1     O275      1.23405      .   S
    C153   O276      0.64020      .   S
    C65    O276      0.64020      .   S
    C152   O277      0.64020      .   S
    C64    O277      0.64020      .   S
    C65    O278      0.64100      .   S
    C155   O278      0.64100      .   S
    C64    O279      0.64096      .   S
    C154   O279      0.64096      .   S
    C75    O280      0.52220      .   S
    C15    O280      0.52220      .   S
    C75    O281      0.70610      .   S
    C79    O281      0.70610      .   S
    C74    O282      0.54521      .   S
    C14    O282      0.54521      .   S
    C74    O283      0.70655      .   S
    C78    O283      0.70655      .   S
    C55    O284      0.54545      .   S
    C151   O284      0.54545      .   S
    C54    O285      0.54548      .   S
    C150   O285      0.54548      .   S
    C7     O286      1.23410      .   S
    C167   O286      1.23410      .   S
    C6     O287      1.23376      .   S
    C166   O287      1.23376      .   S
    C73    O288      0.66492      .   S
    C79    O288      0.66492  1_455   S
    C73    O289      0.52763      .   S
    C13    O289      0.52763  1_545   S
    C72    O290      0.68995      .   S
    C78    O290      0.68995      .   S
    C72    O291      0.52729      .   S
    C12    O291      0.52729  1_545   S
    C49    O292      0.54393      .   S
    C145   O292      0.54393      .   S
    C48    O293      0.54401      .   S
    C144   O293      0.54401      .   S
    C79    O294      0.52702      .   S
    C19    O294      0.52702      .   S
    C78    O295      0.54543      .   S
    C18    O295      0.54543      .   S
    C151   O296      0.68993      .   S
    C145   O296      0.68993      .   S
    C151   O297      0.70654      .   S
    C147   O297      0.70654      .   S
    C150   O298      0.68993      .   S
    C144   O298      0.68993      .   S
    C150   O299      0.70654      .   S
    C146   O299      0.70654      .   S
    C178   O300      0.64244      .   S
    C136   O300      0.64244      .   S
    C179   O301      0.64097      .   S
    C137   O301      0.64097      .   S
    C145   O302      0.71172      .   S
    C131   O302      0.71172      .   S
    C144   O303      0.71166      .   S
    C130   O303      0.71166      .   S
    C1     O304      1.23903      .   S
    C165   O304      1.23903      .   S
    C0     O305      1.23881      .   S
    C164   O305      1.23881      .   S
    C51    O306      0.54535      .   S
    C147   O306      0.54535      .   S
    C50    O307      0.54535      .   S
    C146   O307      0.54535      .   S
    C147   O308      0.68942      .   S
    C149   O308      0.68942      .   S
    C146   O309      0.68939      .   S
    C148   O309      0.68939      .   S
    C137   O310      0.64020      .   S
    C177   O310      0.64020      .   S
    C137   O311      0.74479      .   S
    C129   O311      0.74479      .   S
    C136   O312      0.64021      .   S
    C176   O312      0.64021      .   S
    C136   O313      0.74485      .   S
    C128   O313      0.74485      .   S
    C167   O314      0.63551      .   S
    C95    O314      0.63551      .   S
    C166   O315      0.63535      .   S
    C94    O315      0.63535      .   S
    C131   O316      0.71722      .   S
    C129   O316      0.71722      .   S
    C131   O317      0.72151      .   S
    C135   O317      0.72151      .   S
    C130   O318      0.71724      .   S
    C128   O318      0.71724      .   S
    C130   O319      0.72151      .   S
    C134   O319      0.72151      .   S
    C23    O320      0.54489      .   S
    C91    O320      0.54489      .   S
    C22    O321      0.54492      .   S
    C90    O321      0.54492      .   S
    C129   O322      0.69421      .   S
    C133   O322      0.69421      .   S
    C128   O323      0.69416      .   S
    C132   O323      0.69416      .   S
    C94    O324      0.63631      .   S
    C164   O324      0.63631      .   S
    C94    O325      0.75499      .   S
    C92    O325      0.75499      .   S
    C95    O326      0.63632      .   S
    C165   O326      0.63632      .   S
    C95    O327      0.75477      .   S
    C93    O327      0.75477      .   S
    C149   O328      0.71129      .   S
    C135   O328      0.71129      .   S
    C149   O329      0.54417      .   S
    C53    O329      0.54417      .   S
    C148   O330      0.71129      .   S
    C134   O330      0.71129      .   S
    C148   O331      0.54419      .   S
    C52    O331      0.54419      .   S
    C135   O332      0.71540      .   S
    C141   O332      0.71540      .   S
    C134   O333      0.71547      .   S
    C140   O333      0.71547      .   S
    C91    O334      0.69290  1_565   S
    C93    O334      0.69290      .   S
    C91    O335      0.70176      .   S
    C85    O335      0.70176      .   S
    C90    O336      0.69291  1_565   S
    C92    O336      0.69291      .   S
    C90    O337      0.70178      .   S
    C84    O337      0.70178      .   S
    C93    O338      0.71537      .   S
    C87    O338      0.71537      .   S
    C92    O339      0.71506      .   S
    C86    O339      0.71506      .   S
    C133   O340      0.54509      .   S
    C45    O340      0.54509      .   S
    C133   O341      0.70176      .   S
    C139   O341      0.70176      .   S
    C132   O342      0.54498      .   S
    C44    O342      0.54498      .   S
    C132   O343      0.70166      .   S
    C138   O343      0.70166      .   S
    C21    O344      0.54509      .   S
    C85    O344      0.54509      .   S
    C20    O345      0.54509      .   S
    C84    O345      0.54509      .   S
    C85    O346      0.69419      .   S
    C81    O346      0.69419      .   S
    C84    O347      0.69417      .   S
    C80    O347      0.69417      .   S
    C141   O348      0.69273      .   S
    C139   O348      0.69273      .   S
    C141   O349      0.75452      .   S
    C143   O349      0.75452      .   S
    C140   O350      0.69269      .   S
    C138   O350      0.69269      .   S
    C140   O351      0.75455      .   S
    C142   O351      0.75455      .   S
    C29    O352      0.54421      .   S
    C101   O352      0.54421      .   S
    C28    O353      0.54418      .   S
    C100   O353      0.54418      .   S
    C139   O354      0.54490      .   S
    C47    O354      0.54490      .   S
    C138   O355      0.54511      .   S
    C46    O355      0.54511      .   S
    C87    O356      0.71133      .   S
    C101   O356      0.71133      .   S
    C87    O357      0.72161      .   S
    C83    O357      0.72161      .   S
    C86    O358      0.71141      .   S
    C100   O358      0.71141      .   S
    C86    O359      0.72180      .   S
    C82    O359      0.72180      .   S
    C101   O360      0.68935      .   S
    C99    O360      0.68935      .   S
    C100   O361      0.68936      .   S
    C98    O361      0.68936      .   S
    C181   O362      0.63630      .   S
    C143   O362      0.63630      .   S
    C181   O363      1.23932      .   S
    C5     O363      1.23932      .   S
    C180   O364      0.63630      .   S
    C142   O364      0.63630      .   S
    C180   O365      1.23883      .   S
    C4     O365      1.23883      .   S
    C143   O366      0.63576      .   S
    C183   O366      0.63576      .   S
    C142   O367      0.63579      .   S
    C182   O367      0.63579      .   S
    C81    O368      0.71741      .   S
    C83    O368      0.71741  1_545   S
    C81    O369      0.74483      .   S
    C89    O369      0.74483      .   S
    C80    O370      0.71740      .   S
    C82    O370      0.71740  1_545   S
    C80    O371      0.74482      .   S
    C88    O371      0.74482      .   S
    C83    O372      0.71163      .   S
    C97    O372      0.71163      .   S
    C82    O373      0.71168      .   S
    C96    O373      0.71168      .   S
    C160   O374      0.64020      .   S
    C88    O374      0.64020      .   S
    C161   O375      0.64020      .   S
    C89    O375      0.64020      .   S
    C89    O376      0.64101      .   S
    C163   O376      0.64101      .   S
    C88    O377      0.64098      .   S
    C162   O377      0.64098      .   S
    C99    O378      0.54536      .   S
    C27    O378      0.54536      .   S
    C99    O379      0.70656      .   S
    C103   O379      0.70656      .   S
    C98    O380      0.54536      .   S
    C26    O380      0.54536      .   S
    C98    O381      0.70638      .   S
    C102   O381      0.70638      .   S
    C97    O382      0.68995      .   S
    C103   O382      0.68995      .   S
    C96    O383      0.68987      .   S
    C102   O383      0.68987      .   S
    C152   O384      1.32458      .   S
    C0     O384      1.32458      .   S
    C152   O385      1.25846      .   S
    C6     O385      1.25846      .   S
    C153   O386      1.32453      .   S
    C1     O386      1.32453      .   S
    C153   O387      1.25841      .   S
    C7     O387      1.25841      .   S
    C154   O388      1.31871      .   S
    C0     O388      1.31871      .   S
    C154   O389      1.26172      .   S
    C7     O389      1.26172      .   S
    C155   O390      1.31883      .   S
    C1     O390      1.31883      .   S
    C155   O391      1.26186  1_655   S
    C6     O391      1.26186      .   S
    C160   O392      1.32441      .   S
    C2     O392      1.32441  1_554   S
    C160   O393      1.25844      .   S
    C5     O393      1.25844      .   S
    C161   O394      1.32430      .   S
    C3     O394      1.32430  1_554   S
    C161   O395      1.25845      .   S
    C4     O395      1.25845  1_455   S
    C162   O396      1.31865  1_556   S
    C2     O396      1.31865      .   S
    C162   O397      1.26177      .   S
    C4     O397      1.26177      .   S
    C163   O398      1.31887  1_556   S
    C3     O398      1.31887      .   S
    C163   O399      1.26170      .   S
    C5     O399      1.26170      .   S
    C168   O400      1.25839      .   S
    C2     O400      1.25839      .   S
    C168   O401      1.32443      .   S
    C4     O401      1.32443  1_556   S
    C169   O402      1.25846      .   S
    C3     O402      1.25846      .   S
    C169   O403      1.32451      .   S
    C5     O403      1.32451  1_556   S
    C170   O404      1.26181  1_455   S
    C3     O404      1.26181      .   S
    C170   O405      1.31885  1_554   S
    C4     O405      1.31885      .   S
    C171   O406      1.26172      .   S
    C2     O406      1.26172      .   S
    C171   O407      1.31854  1_554   S
    C5     O407      1.31854      .   S
    C176   O408      1.25847      .   S
    C1     O408      1.25847  1_655   S
    C176   O409      1.32449      .   S
    C6     O409      1.32449      .   S
    C177   O410      1.25849      .   S
    C0     O410      1.25849      .   S
    C177   O411      1.32453      .   S
    C7     O411      1.32453      .   S
    C178   O412      1.26197      .   S
    C0     O412      1.26197      .   S
    C178   O413      1.31813      .   S
    C6     O413      1.31813      .   S
    C179   O414      1.26171      .   S
    C1     O414      1.26171      .   S
    C179   O415      1.31867      .   S
    C7     O415      1.31867      .   S
