# CIF file generated by openbabel 2.4.90, see http://openbabel.sf.net
data_I
_chemical_name_common ''
_cell_length_a 13.642
_cell_length_b 14.788
_cell_length_c 15.137
_cell_angle_alpha 90
_cell_angle_beta 90.001
_cell_angle_gamma 90
_space_group_name_H-M_alt 'P 1'
_space_group_name_Hall 'P 1'
loop_
    _symmetry_equiv_pos_as_xyz
    x,y,z
loop_
    _atom_site_label
    _atom_site_type_symbol
    _atom_site_fract_x
    _atom_site_fract_y
    _atom_site_fract_z
    _atom_site_occupancy
    Zr0     Zr   0.42061   0.30616   0.53959   1.000
    Zr1     Zr   0.92060   0.30612   0.53958   1.000
    Zr2     Zr   0.32941   0.69384   0.03960   1.000
    Zr3     Zr   0.82940   0.69377   0.03951   1.000
    Zr4     Zr   0.07940   0.80612   0.96046   1.000
    Zr5     Zr   0.57940   0.80612   0.96042   1.000
    Zr6     Zr   0.17061   0.19379   0.46049   1.000
    Zr7     Zr   0.67060   0.19383   0.46041   1.000
    Zr8     Zr   0.42214   0.14019   0.42254   1.000
    Zr9     Zr   0.92210   0.14014   0.42253   1.000
    Zr10    Zr   0.45111   0.86237   0.15148   1.000
    Zr11    Zr   0.95114   0.86242   0.15136   1.000
    Zr12    Zr   0.32786   0.85978   0.92255   1.000
    Zr13    Zr   0.82786   0.85978   0.92254   1.000
    Zr14    Zr   0.29890   0.13758   0.65140   1.000
    Zr15    Zr   0.79888   0.13757   0.65140   1.000
    Zr16    Zr   0.07791   0.64013   0.07748   1.000
    Zr17    Zr   0.57787   0.64017   0.07746   1.000
    Zr18    Zr   0.04886   0.36245   0.34867   1.000
    Zr19    Zr   0.54887   0.36240   0.34855   1.000
    Zr20    Zr   0.17213   0.35980   0.57749   1.000
    Zr21    Zr   0.67214   0.35979   0.57745   1.000
    Zr22    Zr   0.20113   0.63754   0.84861   1.000
    Zr23    Zr   0.70108   0.63760   0.84848   1.000
    Zr24    Zr   0.34920   0.19455   0.41876   1.000
    Zr25    Zr   0.84920   0.19453   0.41874   1.000
    Zr26    Zr   0.49203   0.15299   0.47775   1.000
    Zr27    Zr   0.99202   0.15294   0.47773   1.000
    Zr28    Zr   0.40327   0.78871   0.15703   1.000
    Zr29    Zr   0.90331   0.78874   0.15673   1.000
    Zr30    Zr   0.00452   0.88623   0.08655   1.000
    Zr31    Zr   0.50440   0.88609   0.08657   1.000
    Zr32    Zr   0.40079   0.80541   0.91876   1.000
    Zr33    Zr   0.90079   0.80542   0.91877   1.000
    Zr34    Zr   0.25797   0.84699   0.97776   1.000
    Zr35    Zr   0.75795   0.84698   0.97774   1.000
    Zr36    Zr   0.34674   0.21124   0.65690   1.000
    Zr37    Zr   0.84671   0.21123   0.65694   1.000
    Zr38    Zr   0.24558   0.11381   0.58660   1.000
    Zr39    Zr   0.74557   0.11382   0.58656   1.000
    Zr40    Zr   0.15081   0.69452   0.08126   1.000
    Zr41    Zr   0.65081   0.69452   0.08124   1.000
    Zr42    Zr   0.00799   0.65292   0.02228   1.000
    Zr43    Zr   0.50797   0.65298   0.02226   1.000
    Zr44    Zr   0.09669   0.28877   0.34330   1.000
    Zr45    Zr   0.59672   0.28874   0.34306   1.000
    Zr46    Zr   0.49558   0.38615   0.41344   1.000
    Zr47    Zr   0.99548   0.38626   0.41348   1.000
    Zr48    Zr   0.09921   0.30543   0.58127   1.000
    Zr49    Zr   0.59922   0.30541   0.58126   1.000
    Zr50    Zr   0.24204   0.34700   0.52200   1.000
    Zr51    Zr   0.74204   0.34698   0.52225   1.000
    Zr52    Zr   0.15329   0.71121   0.84316   1.000
    Zr53    Zr   0.65323   0.71125   0.84296   1.000
    Zr54    Zr   0.25446   0.61378   0.91348   1.000
    Zr55    Zr   0.75438   0.61386   0.91337   1.000
    O56     O    0.54292   0.64657   0.04986   1.000
    O57     O    0.04295   0.64652   0.04988   1.000
    O58     O    0.86636   0.74126   0.09812   1.000
    O59     O    0.79189   0.65382   0.97644   1.000
    O60     O    0.36634   0.74128   0.09832   1.000
    O61     O    0.29193   0.65381   0.97654   1.000
    O62     O    0.61434   0.66734   0.07935   1.000
    O63     O    0.11436   0.66732   0.07937   1.000
    O64     O    0.97783   0.87433   0.11896   1.000
    O65     O    0.04196   0.84617   0.02351   1.000
    O66     O    0.47775   0.87423   0.11903   1.000
    O67     O    0.54190   0.84610   0.02350   1.000
    O68     O    0.92723   0.82558   0.15404   1.000
    O69     O    0.42719   0.82554   0.15426   1.000
    O70     O    0.57280   0.32557   0.34581   1.000
    O71     O    0.63366   0.24129   0.40174   1.000
    O72     O    0.07278   0.32561   0.34599   1.000
    O73     O    0.13365   0.24128   0.40190   1.000
    O74     O    0.52223   0.37428   0.38100   1.000
    O75     O    0.02217   0.37435   0.38107   1.000
    O76     O    0.45809   0.34616   0.47652   1.000
    O77     O    0.95804   0.34619   0.47653   1.000
    O78     O    0.88565   0.16734   0.42064   1.000
    O79     O    0.38567   0.16737   0.42065   1.000
    O80     O    0.95706   0.14654   0.45013   1.000
    O81     O    0.45709   0.14659   0.45015   1.000
    O82     O    0.70808   0.15383   0.52348   1.000
    O83     O    0.20810   0.15380   0.52355   1.000
    O84     O    0.20708   0.35340   0.54975   1.000
    O85     O    0.70709   0.35339   0.54985   1.000
    O86     O    0.88366   0.25868   0.59826   1.000
    O87     O    0.38368   0.25870   0.59825   1.000
    O88     O    0.63568   0.33260   0.57936   1.000
    O89     O    0.13567   0.33262   0.57938   1.000
    O90     O    0.77222   0.12570   0.61898   1.000
    O91     O    0.27224   0.12570   0.61900   1.000
    O92     O    0.32282   0.17441   0.65415   1.000
    O93     O    0.82280   0.17440   0.65417   1.000
    O94     O    0.67715   0.67443   0.84572   1.000
    O95     O    0.61631   0.75869   0.90169   1.000
    O96     O    0.17721   0.67438   0.84588   1.000
    O97     O    0.11634   0.75867   0.90181   1.000
    O98     O    0.72773   0.62573   0.88093   1.000
    O99     O    0.22779   0.62566   0.88105   1.000
    O100    O    0.36433   0.83260   0.92066   1.000
    O101    O    0.86433   0.83260   0.92066   1.000
    O102    O    0.79291   0.85338   0.95014   1.000
    O103    O    0.29292   0.85339   0.95015   1.000
    O104    O    0.38491   0.25035   0.47918   1.000
    O105    O    0.25991   0.19417   0.43963   1.000
    O106    O    0.88490   0.25033   0.47916   1.000
    O107    O    0.75990   0.19418   0.43957   1.000
    O108    O    0.45632   0.22957   0.50867   1.000
    O109    O    0.58132   0.17341   0.46908   1.000
    O110    O    0.95631   0.22953   0.50865   1.000
    O111    O    0.08131   0.17336   0.46911   1.000
    O112    O    0.36510   0.74963   0.97918   1.000
    O113    O    0.49009   0.80576   0.93959   1.000
    O114    O    0.86510   0.74959   0.97914   1.000
    O115    O    0.99010   0.80577   0.93961   1.000
    O116    O    0.29369   0.77041   0.00868   1.000
    O117    O    0.16868   0.82655   0.96911   1.000
    O118    O    0.79368   0.77037   0.00862   1.000
    O119    O    0.66868   0.82655   0.96908   1.000
    O120    O    0.24011   0.69418   0.06043   1.000
    O121    O    0.11510   0.75032   0.02086   1.000
    O122    O    0.74011   0.69414   0.06038   1.000
    O123    O    0.61510   0.75032   0.02083   1.000
    O124    O    0.91870   0.67334   0.03090   1.000
    O125    O    0.04369   0.72952   0.99137   1.000
    O126    O    0.41869   0.67341   0.03093   1.000
    O127    O    0.54368   0.72955   0.99134   1.000
    O128    O    0.00990   0.30577   0.56043   1.000
    O129    O    0.13491   0.24961   0.52088   1.000
    O130    O    0.50992   0.30579   0.56043   1.000
    O131    O    0.63491   0.24962   0.52084   1.000
    O132    O    0.33132   0.32658   0.53080   1.000
    O133    O    0.20632   0.27040   0.49125   1.000
    O134    O    0.83132   0.32655   0.53092   1.000
    O135    O    0.70632   0.27040   0.49133   1.000
    N136    N    0.78338   0.06689   0.85619   1.000
    O137    O    0.79328   0.08553   0.77254   1.000
    O138    O    0.80439   0.98255   0.87349   1.000
    N139    N    0.03346   0.43304   0.14387   1.000
    O140    O    0.05447   0.51738   0.12655   1.000
    O141    O    0.04333   0.41444   0.22752   1.000
    N142    N    0.46664   0.93288   0.35620   1.000
    O143    O    0.44562   0.01733   0.37350   1.000
    O144    O    0.45674   0.91434   0.27257   1.000
    N145    N    0.71664   0.56688   0.64377   1.000
    O146    O    0.70672   0.58553   0.72740   1.000
    O147    O    0.69561   0.48255   0.62648   1.000
    N148    N    0.21661   0.56690   0.64384   1.000
    O149    O    0.19559   0.48256   0.62654   1.000
    O150    O    0.20672   0.58552   0.72749   1.000
    N151    N    0.28339   0.06690   0.85621   1.000
    O152    O    0.30441   0.98255   0.87351   1.000
    O153    O    0.29329   0.08553   0.77256   1.000
    N154    N    0.95895   0.93283   0.35616   1.000
    O155    O    0.95288   0.91432   0.27251   1.000
    O156    O    0.94175   0.01728   0.37347   1.000
    N157    N    0.53336   0.43309   0.14381   1.000
    O158    O    0.54326   0.41446   0.22744   1.000
    O159    O    0.55439   0.51742   0.12650   1.000
loop_
    _geom_bond_atom_site_label_1
    _geom_bond_atom_site_label_2
    _geom_bond_distance
    _geom_bond_site_symmetry_2
    _ccdc_geom_bond_type
    Zr43   O56       0.64097      .   S
    Zr17   O56       0.64097      .   S
    Zr42   O57       0.64101      .   S
    Zr16   O57       0.64101      .   S
    Zr3    O58       1.23871      .   S
    Zr29   O58       1.23871      .   S
    Zr3    O59       1.23381  1_554   S
    Zr55   O59       1.23381      .   S
    Zr2    O60       1.23926      .   S
    Zr28   O60       1.23926      .   S
    Zr2    O61       1.23407  1_554   S
    Zr54   O61       1.23407      .   S
    Zr17   O62       0.64019      .   S
    Zr41   O62       0.64019      .   S
    Zr16   O63       0.64020      .   S
    Zr40   O63       0.64020      .   S
    Zr30   O64       0.63574  1_455   S
    Zr11   O64       0.63574      .   S
    Zr30   O65       1.23386      .   S
    Zr4    O65       1.23386  1_556   S
    Zr31   O66       0.63576      .   S
    Zr10   O66       0.63576      .   S
    Zr31   O67       1.23408      .   S
    Zr5    O67       1.23408  1_556   S
    Zr11   O68       0.63629      .   S
    Zr29   O68       0.63629      .   S
    Zr10   O69       0.63631      .   S
    Zr28   O69       0.63631      .   S
    Zr45   O70       0.63630      .   S
    Zr19   O70       0.63630      .   S
    Zr45   O71       1.23907      .   S
    Zr7    O71       1.23907      .   S
    Zr44   O72       0.63630      .   S
    Zr18   O72       0.63630      .   S
    Zr44   O73       1.23860      .   S
    Zr6    O73       1.23860      .   S
    Zr19   O74       0.63575      .   S
    Zr46   O74       0.63575      .   S
    Zr18   O75       0.63575      .   S
    Zr47   O75       0.63575  1_655   S
    Zr46   O76       1.23410      .   S
    Zr0    O76       1.23410      .   S
    Zr47   O77       1.23405      .   S
    Zr1    O77       1.23405      .   S
    Zr25   O78       0.64020      .   S
    Zr9    O78       0.64020      .   S
    Zr24   O79       0.64020      .   S
    Zr8    O79       0.64020      .   S
    Zr9    O80       0.64100      .   S
    Zr27   O80       0.64100      .   S
    Zr8    O81       0.64096      .   S
    Zr26   O81       0.64096      .   S
    Zr7    O82       1.23410      .   S
    Zr39   O82       1.23410      .   S
    Zr6    O83       1.23376      .   S
    Zr38   O83       1.23376      .   S
    Zr50   O84       0.64244      .   S
    Zr20   O84       0.64244      .   S
    Zr51   O85       0.64097      .   S
    Zr21   O85       0.64097      .   S
    Zr1    O86       1.23903      .   S
    Zr37   O86       1.23903      .   S
    Zr0    O87       1.23881      .   S
    Zr36   O87       1.23881      .   S
    Zr21   O88       0.64020      .   S
    Zr49   O88       0.64020      .   S
    Zr20   O89       0.64021      .   S
    Zr48   O89       0.64021      .   S
    Zr39   O90       0.63551      .   S
    Zr15   O90       0.63551      .   S
    Zr38   O91       0.63535      .   S
    Zr14   O91       0.63535      .   S
    Zr14   O92       0.63631      .   S
    Zr36   O92       0.63631      .   S
    Zr15   O93       0.63632      .   S
    Zr37   O93       0.63632      .   S
    Zr53   O94       0.63630      .   S
    Zr23   O94       0.63630      .   S
    Zr53   O95       1.23932      .   S
    Zr5    O95       1.23932      .   S
    Zr52   O96       0.63630      .   S
    Zr22   O96       0.63630      .   S
    Zr52   O97       1.23883      .   S
    Zr4    O97       1.23883      .   S
    Zr23   O98       0.63576      .   S
    Zr55   O98       0.63576      .   S
    Zr22   O99       0.63579      .   S
    Zr54   O99       0.63579      .   S
    Zr32   O100      0.64020      .   S
    Zr12   O100      0.64020      .   S
    Zr33   O101      0.64020      .   S
    Zr13   O101      0.64020      .   S
    Zr13   O102      0.64101      .   S
    Zr35   O102      0.64101      .   S
    Zr12   O103      0.64098      .   S
    Zr34   O103      0.64098      .   S
    Zr24   O104      1.32458      .   S
    Zr0    O104      1.32458      .   S
    Zr24   O105      1.25846      .   S
    Zr6    O105      1.25846      .   S
    Zr25   O106      1.32453      .   S
    Zr1    O106      1.32453      .   S
    Zr25   O107      1.25841      .   S
    Zr7    O107      1.25841      .   S
    Zr26   O108      1.31871      .   S
    Zr0    O108      1.31871      .   S
    Zr26   O109      1.26172      .   S
    Zr7    O109      1.26172      .   S
    Zr27   O110      1.31883      .   S
    Zr1    O110      1.31883      .   S
    Zr27   O111      1.26186  1_655   S
    Zr6    O111      1.26186      .   S
    Zr32   O112      1.32441      .   S
    Zr2    O112      1.32441  1_554   S
    Zr32   O113      1.25844      .   S
    Zr5    O113      1.25844      .   S
    Zr33   O114      1.32430      .   S
    Zr3    O114      1.32430  1_554   S
    Zr33   O115      1.25845      .   S
    Zr4    O115      1.25845  1_455   S
    Zr34   O116      1.31865  1_556   S
    Zr2    O116      1.31865      .   S
    Zr34   O117      1.26177      .   S
    Zr4    O117      1.26177      .   S
    Zr35   O118      1.31887  1_556   S
    Zr3    O118      1.31887      .   S
    Zr35   O119      1.26170      .   S
    Zr5    O119      1.26170      .   S
    Zr40   O120      1.25839      .   S
    Zr2    O120      1.25839      .   S
    Zr40   O121      1.32443      .   S
    Zr4    O121      1.32443  1_556   S
    Zr41   O122      1.25846      .   S
    Zr3    O122      1.25846      .   S
    Zr41   O123      1.32451      .   S
    Zr5    O123      1.32451  1_556   S
    Zr42   O124      1.26181  1_455   S
    Zr3    O124      1.26181      .   S
    Zr42   O125      1.31885  1_554   S
    Zr4    O125      1.31885      .   S
    Zr43   O126      1.26172      .   S
    Zr2    O126      1.26172      .   S
    Zr43   O127      1.31854  1_554   S
    Zr5    O127      1.31854      .   S
    Zr48   O128      1.25847      .   S
    Zr1    O128      1.25847  1_655   S
    Zr48   O129      1.32449      .   S
    Zr6    O129      1.32449      .   S
    Zr49   O130      1.25849      .   S
    Zr0    O130      1.25849      .   S
    Zr49   O131      1.32453      .   S
    Zr7    O131      1.32453      .   S
    Zr50   O132      1.26197      .   S
    Zr0    O132      1.26197      .   S
    Zr50   O133      1.31813      .   S
    Zr6    O133      1.31813      .   S
    Zr51   O134      1.26171      .   S
    Zr1    O134      1.26171      .   S
    Zr51   O135      1.31867      .   S
    Zr7    O135      1.31867      .   S
    N136   O137      1.30281      .   S
    Zr15   O137      1.99013      .   S
    N136   O138      1.30640  1_545   S
    Zr13   O138      1.98734      .   S
    N139   O140      1.30628      .   S
    Zr16   O140      1.98722      .   S
    N139   O141      1.30277      .   S
    Zr18   O141      1.98989      .   S
    N142   O143      1.30782  1_565   S
    Zr8    O143      1.98869      .   S
    N142   O144      1.30225      .   S
    Zr10   O144      1.98905      .   S
    N145   O146      1.30253      .   S
    Zr23   O146      1.98953      .   S
    N145   O147      1.30624      .   S
    Zr21   O147      1.98713      .   S
    N148   O149      1.30627      .   S
    Zr20   O149      1.98720      .   S
    N148   O150      1.30271      .   S
    Zr22   O150      1.98978      .   S
    N151   O152      1.30637  1_545   S
    Zr12   O152      1.98729      .   S
    N151   O153      1.30285      .   S
    Zr14   O153      1.99044      .   S
    N154   O155      1.29813      .   S
    Zr11   O155      1.98806      .   S
    N154   O156      1.29741  1_565   S
    Zr9    O156      1.98099      .   S
    N157   O158      1.30260      .   S
    Zr19   O158      1.98971      .   S
    N157   O159      1.30628      .   S
    Zr17   O159      1.98704      .   S
