# CIF file generated by openbabel 2.4.90, see http://openbabel.sf.net
data_I
_chemical_name_common ''
_cell_length_a 18.434
_cell_length_b 18.423
_cell_length_c 18.421
_cell_angle_alpha 60.161
_cell_angle_beta 60.179
_cell_angle_gamma 60.182
_space_group_name_H-M_alt 'P 1'
_space_group_name_Hall 'P 1'
loop_
    _symmetry_equiv_pos_as_xyz
    x,y,z
loop_
    _atom_site_label
    _atom_site_type_symbol
    _atom_site_fract_x
    _atom_site_fract_y
    _atom_site_fract_z
    _atom_site_occupancy
    C0      C    0.29328   0.29339   0.11949   1.000
    C1      C    0.29364   0.29372   0.29370   1.000
    C2      C    0.11969   0.29328   0.29328   1.000
    C3      C    0.29326   0.11953   0.29337   1.000
    C4      C    0.70670   0.70664   0.88051   1.000
    C5      C    0.70635   0.70631   0.70628   1.000
    C6      C    0.70671   0.88049   0.70660   1.000
    C7      C    0.88029   0.70675   0.70671   1.000
    C8      C    0.45124   0.45182   0.93198   1.000
    C9      C    0.45242   0.45214   0.16438   1.000
    C10     C    0.93203   0.16439   0.45150   1.000
    C11     C    0.16423   0.93177   0.45212   1.000
    C12     C    0.45172   0.93187   0.16400   1.000
    C13     C    0.45180   0.16438   0.93179   1.000
    C14     C    0.93220   0.45140   0.45144   1.000
    C15     C    0.16421   0.45242   0.45239   1.000
    C16     C    0.45242   0.16436   0.45215   1.000
    C17     C    0.45125   0.93203   0.45178   1.000
    C18     C    0.93204   0.45149   0.16440   1.000
    C19     C    0.16422   0.45216   0.93173   1.000
    C20     C    0.54874   0.54820   0.06801   1.000
    C21     C    0.54756   0.54789   0.83562   1.000
    C22     C    0.83575   0.06826   0.54787   1.000
    C23     C    0.06794   0.83564   0.54849   1.000
    C24     C    0.06794   0.54854   0.83560   1.000
    C25     C    0.83576   0.54786   0.06827   1.000
    C26     C    0.54874   0.06799   0.54822   1.000
    C27     C    0.54756   0.83566   0.54784   1.000
    C28     C    0.83577   0.54760   0.54761   1.000
    C29     C    0.06778   0.54862   0.54856   1.000
    C30     C    0.54826   0.06816   0.83560   1.000
    C31     C    0.54819   0.83564   0.06821   1.000
    C32     C    0.47298   0.47332   0.96101   1.000
    C33     C    0.47365   0.47349   0.09237   1.000
    C34     C    0.96102   0.09238   0.47312   1.000
    C35     C    0.09228   0.96088   0.47348   1.000
    C36     C    0.47326   0.96094   0.09238   1.000
    C37     C    0.47329   0.09238   0.96089   1.000
    C38     C    0.96114   0.47307   0.47300   1.000
    C39     C    0.09227   0.47365   0.47363   1.000
    C40     C    0.47365   0.09236   0.47349   1.000
    C41     C    0.47299   0.96105   0.47328   1.000
    C42     C    0.96103   0.47312   0.09238   1.000
    C43     C    0.09228   0.47351   0.96085   1.000
    C44     C    0.52699   0.52671   0.03898   1.000
    C45     C    0.52633   0.52654   0.90763   1.000
    C46     C    0.90770   0.03914   0.52652   1.000
    C47     C    0.03895   0.90765   0.52687   1.000
    C48     C    0.03895   0.52690   0.90762   1.000
    C49     C    0.90770   0.52651   0.03915   1.000
    C50     C    0.52699   0.03898   0.52672   1.000
    C51     C    0.52633   0.90766   0.52651   1.000
    C52     C    0.90771   0.52637   0.52637   1.000
    C53     C    0.03884   0.52694   0.52691   1.000
    C54     C    0.52673   0.03908   0.90762   1.000
    C55     C    0.52669   0.90765   0.03911   1.000
    C56     C    0.38896   0.38912   0.11110   1.000
    C57     C    0.44630   0.44644   0.05372   1.000
    C58     C    0.11099   0.11085   0.38880   1.000
    C59     C    0.05365   0.05357   0.44627   1.000
    C60     C    0.38873   0.11095   0.11090   1.000
    C61     C    0.44622   0.05363   0.05360   1.000
    C62     C    0.11118   0.38904   0.38900   1.000
    C63     C    0.05377   0.44636   0.44637   1.000
    C64     C    0.38895   0.11112   0.38911   1.000
    C65     C    0.44630   0.05374   0.44642   1.000
    C66     C    0.11100   0.38880   0.11083   1.000
    C67     C    0.05366   0.44628   0.05356   1.000
    C68     C    0.61102   0.61090   0.88889   1.000
    C69     C    0.55368   0.55359   0.94620   1.000
    C70     C    0.88899   0.88918   0.61120   1.000
    C71     C    0.94633   0.94646   0.55372   1.000
    C72     C    0.88898   0.61122   0.88916   1.000
    C73     C    0.94632   0.55375   0.94644   1.000
    C74     C    0.61103   0.88890   0.61088   1.000
    C75     C    0.55369   0.94629   0.55357   1.000
    C76     C    0.88880   0.61099   0.61095   1.000
    C77     C    0.94621   0.55365   0.55364   1.000
    C78     C    0.61125   0.88908   0.88910   1.000
    C79     C    0.55376   0.94640   0.94640   1.000
    C80     C    0.25006   0.25001   0.20000   1.000
    C81     C    0.74992   0.75001   0.75000   1.000
    C82     C    0.36663   0.36698   0.07147   1.000
    C83     C    0.36705   0.36711   0.19493   1.000
    C84     C    0.07147   0.19464   0.36652   1.000
    C85     C    0.19472   0.07123   0.36677   1.000
    C86     C    0.36654   0.07134   0.19471   1.000
    C87     C    0.36659   0.19475   0.07128   1.000
    C88     C    0.07164   0.36675   0.36670   1.000
    C89     C    0.19492   0.36712   0.36712   1.000
    C90     C    0.36706   0.19494   0.36710   1.000
    C91     C    0.36661   0.07150   0.36697   1.000
    C92     C    0.07147   0.36651   0.19464   1.000
    C93     C    0.19473   0.36678   0.07120   1.000
    C94     C    0.63335   0.63304   0.92850   1.000
    C95     C    0.63293   0.63292   0.80500   1.000
    C96     C    0.80526   0.92880   0.63322   1.000
    C97     C    0.92851   0.80538   0.63348   1.000
    C98     C    0.92851   0.63352   0.80535   1.000
    C99     C    0.80525   0.63324   0.92880   1.000
    C100    C    0.63336   0.92852   0.63303   1.000
    C101    C    0.63292   0.80509   0.63290   1.000
    C102    C    0.80506   0.63290   0.63288   1.000
    C103    C    0.92834   0.63328   0.63323   1.000
    C104    C    0.63344   0.92868   0.80528   1.000
    C105    C    0.63339   0.80528   0.92872   1.000
    O106    O    0.53786   0.53746   0.05349   1.000
    O107    O    0.50032   0.50010   0.06567   1.000
    O108    O    0.54033   0.54015   0.99259   1.000
    O109    O    0.53744   0.87164   0.05366   1.000
    O110    O    0.49998   0.93429   0.06574   1.000
    O111    O    0.54023   0.92702   0.99275   1.000
    O112    O    0.87173   0.53719   0.05371   1.000
    O113    O    0.93437   0.49982   0.06577   1.000
    O114    O    0.92701   0.54013   0.99279   1.000
    O115    O    0.00735   0.45970   0.07297   1.000
    O116    O    0.08233   0.41754   0.08219   1.000
    O117    O    0.07297   0.45989   0.00720   1.000
    O118    O    0.45974   0.00728   0.07299   1.000
    O119    O    0.41748   0.08229   0.08225   1.000
    O120    O    0.45976   0.07300   0.00725   1.000
    O121    O    0.45997   0.45996   0.07304   1.000
    O122    O    0.41763   0.41778   0.08241   1.000
    O123    O    0.45964   0.45988   0.00737   1.000
    O124    O    0.15286   0.37779   0.09101   1.000
    O125    O    0.24400   0.33008   0.09534   1.000
    O126    O    0.37766   0.15285   0.09109   1.000
    O127    O    0.32994   0.24407   0.09538   1.000
    O128    O    0.37779   0.37805   0.09128   1.000
    O129    O    0.32996   0.33018   0.09548   1.000
    O130    O    0.46303   0.46281   0.12837   1.000
    O131    O    0.94654   0.46230   0.12839   1.000
    O132    O    0.46249   0.94640   0.12819   1.000
    O133    O    0.09124   0.37766   0.15273   1.000
    O134    O    0.37764   0.09114   0.15280   1.000
    O135    O    0.37800   0.37812   0.15301   1.000
    O136    O    0.27167   0.27170   0.15974   1.000
    O137    O    0.09558   0.32989   0.24396   1.000
    O138    O    0.32990   0.09544   0.24404   1.000
    O139    O    0.33034   0.33041   0.24432   1.000
    O140    O    0.18487   0.27165   0.24664   1.000
    O141    O    0.09558   0.24396   0.32990   1.000
    O142    O    0.09566   0.33001   0.32999   1.000
    O143    O    0.24399   0.09538   0.33007   1.000
    O144    O    0.32994   0.09552   0.33017   1.000
    O145    O    0.33035   0.24433   0.33040   1.000
    O146    O    0.24428   0.33042   0.33041   1.000
    O147    O    0.09123   0.15275   0.37766   1.000
    O148    O    0.09141   0.37789   0.37785   1.000
    O149    O    0.15285   0.09104   0.37778   1.000
    O150    O    0.37778   0.09131   0.37804   1.000
    O151    O    0.37800   0.15303   0.37810   1.000
    O152    O    0.15305   0.37808   0.37806   1.000
    O153    O    0.08232   0.08221   0.41753   1.000
    O154    O    0.08247   0.41770   0.41768   1.000
    O155    O    0.41762   0.08243   0.41776   1.000
    O156    O    0.00734   0.07297   0.45969   1.000
    O157    O    0.07297   0.00723   0.45988   1.000
    O158    O    0.00745   0.45972   0.45969   1.000
    O159    O    0.07302   0.46001   0.46000   1.000
    O160    O    0.45964   0.00739   0.45985   1.000
    O161    O    0.45997   0.07305   0.45995   1.000
    O162    O    0.94667   0.46224   0.46222   1.000
    O163    O    0.94653   0.12838   0.46231   1.000
    O164    O    0.46212   0.94654   0.46253   1.000
    O165    O    0.12825   0.94633   0.46280   1.000
    O166    O    0.46304   0.12836   0.46282   1.000
    O167    O    0.12824   0.46303   0.46301   1.000
    O168    O    0.93442   0.49972   0.49968   1.000
    O169    O    0.93436   0.06576   0.49982   1.000
    O170    O    0.49966   0.93435   0.49989   1.000
    O171    O    0.06562   0.93427   0.50018   1.000
    O172    O    0.50032   0.06567   0.50011   1.000
    O173    O    0.06556   0.50030   0.50027   1.000
    O174    O    0.87174   0.53698   0.53699   1.000
    O175    O    0.92696   0.54001   0.54000   1.000
    O176    O    0.53695   0.87166   0.53717   1.000
    O177    O    0.54001   0.92697   0.54004   1.000
    O178    O    0.87172   0.05370   0.53719   1.000
    O179    O    0.92701   0.99280   0.54012   1.000
    O180    O    0.53787   0.05349   0.53747   1.000
    O181    O    0.54034   0.99263   0.54014   1.000
    O182    O    0.05345   0.87164   0.53768   1.000
    O183    O    0.99264   0.92705   0.54029   1.000
    O184    O    0.05331   0.53778   0.53773   1.000
    O185    O    0.99253   0.54030   0.54027   1.000
    O186    O    0.58236   0.91759   0.58222   1.000
    O187    O    0.91751   0.58232   0.58230   1.000
    O188    O    0.91766   0.91782   0.58246   1.000
    O189    O    0.62198   0.84699   0.62189   1.000
    O190    O    0.62220   0.90871   0.62195   1.000
    O191    O    0.84693   0.62195   0.62191   1.000
    O192    O    0.90857   0.62213   0.62209   1.000
    O193    O    0.84713   0.90899   0.62221   1.000
    O194    O    0.90875   0.84728   0.62234   1.000
    O195    O    0.75570   0.66961   0.66958   1.000
    O196    O    0.66964   0.75570   0.66959   1.000
    O197    O    0.67004   0.90451   0.66982   1.000
    O198    O    0.75599   0.90465   0.66991   1.000
    O199    O    0.90431   0.67001   0.66997   1.000
    O200    O    0.90440   0.75607   0.67009   1.000
    O201    O    0.66964   0.66961   0.75564   1.000
    O202    O    0.72832   0.81525   0.72830   1.000
    O203    O    0.67008   0.90459   0.75594   1.000
    O204    O    0.81510   0.72838   0.72835   1.000
    O205    O    0.90440   0.67013   0.75603   1.000
    O206    O    0.62198   0.62191   0.84694   1.000
    O207    O    0.62234   0.90888   0.84719   1.000
    O208    O    0.90874   0.62237   0.84725   1.000
    O209    O    0.05344   0.53772   0.87161   1.000
    O210    O    0.53750   0.05362   0.87161   1.000
    O211    O    0.53694   0.53721   0.87162   1.000
    O212    O    0.67002   0.66984   0.90451   1.000
    O213    O    0.67004   0.75596   0.90461   1.000
    O214    O    0.75597   0.66994   0.90465   1.000
    O215    O    0.62219   0.62197   0.90869   1.000
    O216    O    0.58235   0.58225   0.91754   1.000
    O217    O    0.62232   0.84718   0.90891   1.000
    O218    O    0.58251   0.91774   0.91775   1.000
    O219    O    0.84712   0.62223   0.90898   1.000
    O220    O    0.91765   0.58249   0.91780   1.000
    O221    O    0.99263   0.54033   0.92703   1.000
    O222    O    0.06561   0.50021   0.93423   1.000
    O223    O    0.54025   0.99274   0.92701   1.000
    O224    O    0.50001   0.06573   0.93425   1.000
    O225    O    0.54000   0.54007   0.92691   1.000
    O226    O    0.49966   0.49993   0.93432   1.000
    O227    O    0.12825   0.46284   0.94629   1.000
    O228    O    0.46254   0.12838   0.94634   1.000
    O229    O    0.46211   0.46257   0.94650   1.000
    O230    O    0.27166   0.18477   0.24669   1.000
    O231    O    0.72831   0.72832   0.81525   1.000
    O232    O    0.72813   0.72816   0.72814   1.000
loop_
    _geom_bond_atom_site_label_1
    _geom_bond_atom_site_label_2
    _geom_bond_distance
    _geom_bond_site_symmetry_2
    _ccdc_geom_bond_type
    C44    O106      0.54431      .   S
    C20    O106      0.54431      .   S
    C44    O107      0.69520      .   S
    C33    O107      0.69520      .   S
    C44    O108      0.70215  1_554   S
    C69    O108      0.70215      .   S
    C55    O109      0.54429      .   S
    C31    O109      0.54429      .   S
    C55    O110      0.69513      .   S
    C36    O110      0.69513      .   S
    C55    O111      0.70155  1_554   S
    C79    O111      0.70155      .   S
    C49    O112      0.54430      .   S
    C25    O112      0.54430      .   S
    C49    O113      0.69510      .   S
    C42    O113      0.69510      .   S
    C49    O114      0.70151  1_554   S
    C73    O114      0.70151      .   S
    C67    O115      0.70165      .   S
    C42    O115      0.70165  1_655   S
    C67    O116      0.74761      .   S
    C66    O116      0.74761      .   S
    C67    O117      0.70151      .   S
    C43    O117      0.70151  1_556   S
    C61    O118      0.70149      .   S
    C36    O118      0.70149  1_565   S
    C61    O119      0.74766      .   S
    C60    O119      0.74766      .   S
    C61    O120      0.70155      .   S
    C37    O120      0.70155  1_556   S
    C57    O121      0.70165      .   S
    C33    O121      0.70165      .   S
    C57    O122      0.74793      .   S
    C56    O122      0.74793      .   S
    C57    O123      0.70160      .   S
    C32    O123      0.70160  1_556   S
    C93    O124      0.63858      .   S
    C66    O124      0.63858      .   S
    C93    O125      0.98588      .   S
    C0     O125      0.98588      .   S
    C87    O126      0.63857      .   S
    C60    O126      0.63857      .   S
    C87    O127      0.98582      .   S
    C0     O127      0.98582      .   S
    C82    O128      0.63852      .   S
    C56    O128      0.63852      .   S
    C82    O129      0.98602      .   S
    C0     O129      0.98602      .   S
    C33    O130      0.54430      .   S
    C9     O130      0.54430      .   S
    C42    O131      0.54429      .   S
    C18    O131      0.54429      .   S
    C36    O132      0.54139      .   S
    C12    O132      0.54139      .   S
    C66    O133      0.63853      .   S
    C92    O133      0.63853      .   S
    C60    O134      0.63854      .   S
    C86    O134      0.63854      .   S
    C56    O135      0.63867      .   S
    C83    O135      0.63867      .   S
    C0     O136      0.66171      .   S
    C80    O136      0.66171      .   S
    C92    O137      0.98564      .   S
    C2     O137      0.98564      .   S
    C86    O138      0.98579      .   S
    C3     O138      0.98579      .   S
    C83    O139      0.98649      .   S
    C1     O139      0.98649      .   S
    C80    O140      1.08563      .   S
    C2     O140      1.08563      .   S
    C2     O141      0.98566      .   S
    C84    O141      0.98566      .   S
    C2     O142      0.98537      .   S
    C88    O142      0.98537      .   S
    C3     O143      0.98586      .   S
    C85    O143      0.98586      .   S
    C3     O144      0.98603      .   S
    C91    O144      0.98603      .   S
    C1     O145      0.98663      .   S
    C90    O145      0.98663      .   S
    C1     O146      0.98669      .   S
    C89    O146      0.98669      .   S
    C84    O147      0.63853      .   S
    C58    O147      0.63853      .   S
    C88    O148      0.63869      .   S
    C62    O148      0.63869      .   S
    C85    O149      0.63858      .   S
    C58    O149      0.63858      .   S
    C91    O150      0.63851      .   S
    C64    O150      0.63851      .   S
    C90    O151      0.63865      .   S
    C64    O151      0.63865      .   S
    C89    O152      0.63872      .   S
    C62    O152      0.63872      .   S
    C58    O153      0.74765      .   S
    C59    O153      0.74765      .   S
    C62    O154      0.74817      .   S
    C63    O154      0.74817      .   S
    C64    O155      0.74792      .   S
    C65    O155      0.74792      .   S
    C59    O156      0.70165      .   S
    C34    O156      0.70165  1_655   S
    C59    O157      0.70147      .   S
    C35    O157      0.70147  1_565   S
    C63    O158      0.70180      .   S
    C38    O158      0.70180  1_655   S
    C63    O159      0.70162      .   S
    C39    O159      0.70162      .   S
    C65    O160      0.70154      .   S
    C41    O160      0.70154  1_565   S
    C65    O161      0.70166      .   S
    C40    O161      0.70166      .   S
    C14    O162      0.54362      .   S
    C38    O162      0.54362      .   S
    C10    O163      0.54429      .   S
    C34    O163      0.54429      .   S
    C17    O164      0.54430      .   S
    C41    O164      0.54430      .   S
    C11    O165      0.54430      .   S
    C35    O165      0.54430      .   S
    C16    O166      0.54430      .   S
    C40    O166      0.54430      .   S
    C15    O167      0.54431      .   S
    C39    O167      0.54431      .   S
    C38    O168      0.69578      .   S
    C52    O168      0.69578      .   S
    C34    O169      0.69511      .   S
    C46    O169      0.69511      .   S
    C41    O170      0.69520      .   S
    C51    O170      0.69520      .   S
    C35    O171      0.69511      .   S
    C47    O171      0.69511      .   S
    C40    O172      0.69520      .   S
    C50    O172      0.69520      .   S
    C39    O173      0.69520      .   S
    C53    O173      0.69520      .   S
    C52    O174      0.54431      .   S
    C28    O174      0.54431      .   S
    C52    O175      0.70165      .   S
    C77    O175      0.70165      .   S
    C51    O176      0.54430      .   S
    C27    O176      0.54430      .   S
    C51    O177      0.70158      .   S
    C75    O177      0.70158      .   S
    C46    O178      0.54430      .   S
    C22    O178      0.54430      .   S
    C46    O179      0.70146  1_545   S
    C71    O179      0.70146      .   S
    C50    O180      0.54430      .   S
    C26    O180      0.54430      .   S
    C50    O181      0.70155  1_545   S
    C75    O181      0.70155      .   S
    C47    O182      0.54429      .   S
    C23    O182      0.54429      .   S
    C47    O183      0.70165  1_455   S
    C71    O183      0.70165      .   S
    C53    O184      0.54428      .   S
    C29    O184      0.54428      .   S
    C53    O185      0.70173  1_455   S
    C77    O185      0.70173      .   S
    C75    O186      0.74790      .   S
    C74    O186      0.74790      .   S
    C77    O187      0.74789      .   S
    C76    O187      0.74789      .   S
    C71    O188      0.74765      .   S
    C70    O188      0.74765      .   S
    C74    O189      0.63864      .   S
    C101   O189      0.63864      .   S
    C74    O190      0.63858      .   S
    C100   O190      0.63858      .   S
    C76    O191      0.63866      .   S
    C102   O191      0.63866      .   S
    C76    O192      0.63854      .   S
    C103   O192      0.63854      .   S
    C70    O193      0.63857      .   S
    C96    O193      0.63857      .   S
    C70    O194      0.63853      .   S
    C97    O194      0.63853      .   S
    C102   O195      0.98660      .   S
    C5     O195      0.98660      .   S
    C101   O196      0.98653      .   S
    C5     O196      0.98653      .   S
    C100   O197      0.98580      .   S
    C6     O197      0.98580      .   S
    C96    O198      0.98587      .   S
    C6     O198      0.98587      .   S
    C103   O199      0.98583      .   S
    C7     O199      0.98583      .   S
    C97    O200      0.98566      .   S
    C7     O200      0.98566      .   S
    C5     O201      0.98638      .   S
    C95    O201      0.98638      .   S
    C6     O202      0.98348      .   S
    C81    O202      0.98348      .   S
    C6     O203      0.98594      .   S
    C104   O203      0.98594      .   S
    C7     O204      0.98341      .   S
    C81    O204      0.98341      .   S
    C7     O205      0.98565      .   S
    C98    O205      0.98565      .   S
    C95    O206      0.63917      .   S
    C68    O206      0.63917      .   S
    C104   O207      0.63861      .   S
    C78    O207      0.63861      .   S
    C98    O208      0.63853      .   S
    C72    O208      0.63853      .   S
    C24    O209      0.54429      .   S
    C48    O209      0.54429      .   S
    C30    O210      0.54430      .   S
    C54    O210      0.54430      .   S
    C21    O211      0.54430      .   S
    C45    O211      0.54430      .   S
    C4     O212      0.98607      .   S
    C94    O212      0.98607      .   S
    C4     O213      0.98582      .   S
    C105   O213      0.98582      .   S
    C4     O214      0.98588      .   S
    C99    O214      0.98588      .   S
    C68    O215      0.63836      .   S
    C94    O215      0.63836      .   S
    C68    O216      0.74792      .   S
    C69    O216      0.74792      .   S
    C78    O217      0.63857      .   S
    C105   O217      0.63857      .   S
    C78    O218      0.74766      .   S
    C79    O218      0.74766      .   S
    C72    O219      0.63859      .   S
    C99    O219      0.63859      .   S
    C72    O220      0.74767      .   S
    C73    O220      0.74767      .   S
    C48    O221      0.70165  1_455   S
    C73    O221      0.70165      .   S
    C48    O222      0.69510      .   S
    C43    O222      0.69510      .   S
    C54    O223      0.70150  1_545   S
    C79    O223      0.70150      .   S
    C54    O224      0.69513      .   S
    C37    O224      0.69513      .   S
    C45    O225      0.70102      .   S
    C69    O225      0.70102      .   S
    C45    O226      0.69520      .   S
    C32    O226      0.69520      .   S
    C19    O227      0.54430      .   S
    C43    O227      0.54430      .   S
    C13    O228      0.54429      .   S
    C37    O228      0.54429      .   S
    C8     O229      0.54431      .   S
    C32    O229      0.54431      .   S
    C80    O230      1.08572      .   S
    C3     O230      1.08572      .   S
    C81    O231      0.98355      .   S
    C4     O231      0.98355      .   S
    C81    O232      0.98410      .   S
    C5     O232      0.98410      .   S
