# CIF file generated by openbabel 2.4.90, see http://openbabel.sf.net
data_I
_chemical_name_common ''
_cell_length_a 18.434
_cell_length_b 18.423
_cell_length_c 18.421
_cell_angle_alpha 60.161
_cell_angle_beta 60.179
_cell_angle_gamma 60.182
_space_group_name_H-M_alt 'P 1'
_space_group_name_Hall 'P 1'
loop_
    _symmetry_equiv_pos_as_xyz
    x,y,z
loop_
    _atom_site_label
    _atom_site_type_symbol
    _atom_site_fract_x
    _atom_site_fract_y
    _atom_site_fract_z
    _atom_site_occupancy
    Zr0     Zr   0.29328   0.29339   0.11949   1.000
    Zr1     Zr   0.29364   0.29372   0.29370   1.000
    Zr2     Zr   0.11969   0.29328   0.29328   1.000
    Zr3     Zr   0.29326   0.11953   0.29337   1.000
    Zr4     Zr   0.70670   0.70664   0.88051   1.000
    Zr5     Zr   0.70635   0.70631   0.70628   1.000
    Zr6     Zr   0.70671   0.88049   0.70660   1.000
    Zr7     Zr   0.88029   0.70675   0.70671   1.000
    N8      N    0.99999   0.50001   1.00000   1.000
    O9      O    0.95219   0.58507   0.87801   1.000
    O10     O    0.04779   0.41495   0.12198   1.000
    O11     O    0.87798   0.58498   0.95233   1.000
    O12     O    0.12200   0.41505   0.04767   1.000
    N13     N    0.49999   0.00001   0.50000   1.000
    O14     O    0.58481   0.87785   0.58479   1.000
    O15     O    0.41517   0.12217   0.41520   1.000
    O16     O    0.41496   0.04776   0.41508   1.000
    O17     O    0.58502   0.95226   0.58491   1.000
    N18     N    0.49999   0.50001   0.99999   1.000
    O19     O    0.58501   0.58493   0.95225   1.000
    O20     O    0.41497   0.41510   0.04773   1.000
    O21     O    0.58481   0.58481   0.87781   1.000
    O22     O    0.41517   0.41521   0.12215   1.000
    N23     N    0.99999   0.00001   0.50000   1.000
    O24     O    0.87799   0.95233   0.58495   1.000
    O25     O    0.95220   0.87804   0.58505   1.000
    O26     O    0.04778   0.12199   0.41495   1.000
    O27     O    0.12199   0.04770   0.41503   1.000
    N28     N    0.99999   0.50001   0.49999   1.000
    O29     O    0.87785   0.58481   0.58478   1.000
    O30     O    0.95215   0.58501   0.58498   1.000
    O31     O    0.04783   0.41501   0.41499   1.000
    O32     O    0.12213   0.41521   0.41520   1.000
    N33     N    0.49999   0.00001   0.99997   1.000
    O34     O    0.58503   0.95230   0.87796   1.000
    O35     O    0.41495   0.04772   0.12201   1.000
    O36     O    0.41496   0.12204   0.04768   1.000
    O37     O    0.58502   0.87799   0.95229   1.000
    N38     N    0.25006   0.25001   0.20000   1.000
    O39     O    0.26087   0.26086   0.17987   1.000
    O40     O    0.21747   0.26083   0.22332   1.000
    O41     O    0.26086   0.21739   0.22334   1.000
    N42     N    0.74992   0.75001   0.75000   1.000
    O43     O    0.73912   0.78263   0.73915   1.000
    O44     O    0.78251   0.73919   0.73918   1.000
    O45     O    0.73911   0.73917   0.78263   1.000
    O46     O    0.73903   0.73908   0.73907   1.000
loop_
    _geom_bond_atom_site_label_1
    _geom_bond_atom_site_label_2
    _geom_bond_distance
    _geom_bond_site_symmetry_2
    _ccdc_geom_bond_type
    N8     O9        2.31801      .   S
    Zr7    O9        3.30234      .   S
    N8     O10       2.31795  1_656   S
    Zr2    O10       3.30228      .   S
    N8     O11       2.31843      .   S
    Zr4    O11       3.30294      .   S
    N8     O12       2.31844  1_656   S
    Zr0    O12       3.30294      .   S
    N13    O14       2.31970  1_545   S
    Zr5    O14       3.30490      .   S
    N13    O15       2.31973      .   S
    Zr1    O15       3.30503      .   S
    N13    O16       2.31841      .   S
    Zr3    O16       3.30319      .   S
    N13    O17       2.31831  1_545   S
    Zr6    O17       3.30285      .   S
    N18    O19       2.31842      .   S
    Zr4    O19       3.30325      .   S
    N18    O20       2.31840  1_556   S
    Zr0    O20       3.30317      .   S
    N18    O21       2.31974      .   S
    Zr5    O21       3.30477      .   S
    N18    O22       2.31969  1_556   S
    Zr1    O22       3.30485      .   S
    N23    O24       2.31837  1_545   S
    Zr6    O24       3.30286      .   S
    N23    O25       2.31796  1_545   S
    Zr7    O25       3.30230      .   S
    N23    O26       2.31796  1_655   S
    Zr2    O26       3.30231      .   S
    N23    O27       2.31836  1_655   S
    Zr3    O27       3.30285      .   S
    N28    O29       2.32000      .   S
    Zr5    O29       3.30524      .   S
    N28    O30       2.31830      .   S
    Zr7    O30       3.30289      .   S
    N28    O31       2.31836  1_655   S
    Zr2    O31       3.30248      .   S
    N28    O32       2.31991  1_655   S
    Zr1    O32       3.30523      .   S
    N33    O34       2.31808  1_545   S
    Zr6    O34       3.30270      .   S
    N33    O35       2.31831  1_556   S
    Zr3    O35       3.30278      .   S
    N33    O36       2.31834  1_556   S
    Zr0    O36       3.30283      .   S
    N33    O37       2.31810  1_545   S
    Zr4    O37       3.30258      .   S
    N38    O39       0.33085      .   S
    Zr0    O39       0.99256      .   S
    N38    O40       0.54281      .   S
    Zr2    O40       1.62844      .   S
    N38    O41       0.54286      .   S
    Zr3    O41       1.62859      .   S
    N42    O43       0.49174      .   S
    Zr6    O43       1.47522      .   S
    N42    O44       0.49170      .   S
    Zr7    O44       1.47511      .   S
    N42    O45       0.49177      .   S
    Zr4    O45       1.47532      .   S
    N42    O46       0.49205      .   S
    Zr5    O46       1.47614      .   S
