# CIF file generated by openbabel 2.4.90, see http://openbabel.sf.net
data_I
_chemical_name_common ''
_cell_length_a 13.172
_cell_length_b 13.948
_cell_length_c 16.991
_cell_angle_alpha 90.05
_cell_angle_beta 90.016
_cell_angle_gamma 90.246
_space_group_name_H-M_alt 'P 1'
_space_group_name_Hall 'P 1'
loop_
    _symmetry_equiv_pos_as_xyz
    x,y,z
loop_
    _atom_site_label
    _atom_site_type_symbol
    _atom_site_fract_x
    _atom_site_fract_y
    _atom_site_fract_z
    _atom_site_occupancy
    H0      H    0.25904   0.86026   0.50800   1.000
    H1      H    0.44160   0.19883   0.34841   1.000
    H2      H    0.15294   0.14990   0.33424   1.000
    H3      H    0.27552   0.11092   0.31793   1.000
    H4      H    0.56191   0.22927   0.63815   1.000
    H5      H    0.56716   0.33855   0.59124   1.000
    H6      H    0.74068   0.63890   0.00873   1.000
    H7      H    0.55831   0.30109   0.84854   1.000
    H8      H    0.84764   0.34991   0.83404   1.000
    H9      H    0.72476   0.38850   0.81779   1.000
    H10     H    0.43835   0.27027   0.13858   1.000
    H11     H    0.43434   0.16086   0.09110   1.000
    H12     H    0.75984   0.14018   0.99312   1.000
    H13     H    0.94115   0.80087   0.15159   1.000
    H14     H    0.65101   0.84937   0.16554   1.000
    H15     H    0.77383   0.88848   0.18224   1.000
    H16     H    0.06118   0.77130   0.86201   1.000
    H17     H    0.06692   0.66226   0.90899   1.000
    H18     H    0.23973   0.36064   0.49213   1.000
    H19     H    0.05839   0.69908   0.65177   1.000
    H20     H    0.34975   0.65063   0.66560   1.000
    H21     H    0.22673   0.61180   0.68236   1.000
    H22     H    0.93900   0.72913   0.36175   1.000
    H23     H    0.93422   0.83824   0.40931   1.000
    H24     H    0.74099   0.13972   0.49200   1.000
    H25     H    0.55842   0.80115   0.65158   1.000
    H26     H    0.84709   0.85008   0.66575   1.000
    H27     H    0.72451   0.88906   0.68206   1.000
    H28     H    0.43810   0.77071   0.36185   1.000
    H29     H    0.43285   0.66143   0.40876   1.000
    H30     H    0.25935   0.36107   0.99126   1.000
    H31     H    0.44171   0.69888   0.15145   1.000
    H32     H    0.15238   0.65007   0.16596   1.000
    H33     H    0.27526   0.61147   0.18221   1.000
    H34     H    0.56167   0.72971   0.86141   1.000
    H35     H    0.56568   0.83912   0.90889   1.000
    H36     H    0.24018   0.85981   0.00688   1.000
    H37     H    0.05887   0.19911   0.84840   1.000
    H38     H    0.34902   0.15062   0.83446   1.000
    H39     H    0.22619   0.11151   0.81776   1.000
    H40     H    0.93884   0.22868   0.13798   1.000
    H41     H    0.93310   0.33771   0.09100   1.000
    H42     H    0.76028   0.63934   0.50785   1.000
    H43     H    0.94162   0.30090   0.34822   1.000
    H44     H    0.65027   0.34935   0.33434   1.000
    H45     H    0.77329   0.38818   0.31763   1.000
    H46     H    0.06100   0.27085   0.63824   1.000
    H47     H    0.06579   0.16174   0.59068   1.000
    C48     C    0.46662   0.91506   0.24410   1.000
    C49     C    0.42201   0.01324   0.22031   1.000
    C50     C    0.20143   0.04652   0.40770   1.000
    C51     C    0.22421   0.92176   0.47998   1.000
    C52     C    0.53077   0.22017   0.52270   1.000
    C53     C    0.47051   0.19040   0.40759   1.000
    C54     C    0.53667   0.58357   0.74360   1.000
    C55     C    0.57856   0.48408   0.72000   1.000
    C56     C    0.79890   0.45327   0.90772   1.000
    C57     C    0.77569   0.57764   0.98045   1.000
    C58     C    0.47023   0.27957   0.02309   1.000
    C59     C    0.52980   0.30945   0.90784   1.000
    C60     C    0.96819   0.08478   0.25568   1.000
    C61     C    0.92248   0.98666   0.27948   1.000
    C62     C    0.70036   0.95337   0.09262   1.000
    C63     C    0.72440   0.07856   0.02089   1.000
    C64     C    0.03072   0.78031   0.97740   1.000
    C65     C    0.97015   0.80953   0.09245   1.000
    C66     C    0.03485   0.41601   0.75614   1.000
    C67     C    0.07820   0.51523   0.77972   1.000
    C68     C    0.30003   0.54669   0.59255   1.000
    C69     C    0.27542   0.42198   0.52023   1.000
    C70     C    0.97000   0.71987   0.47729   1.000
    C71     C    0.02981   0.69051   0.59247   1.000
    C72     C    0.53341   0.08492   0.75589   1.000
    C73     C    0.57800   0.98674   0.77968   1.000
    C74     C    0.79859   0.95346   0.59222   1.000
    C75     C    0.77582   0.07823   0.52002   1.000
    C76     C    0.46924   0.77981   0.47729   1.000
    C77     C    0.52951   0.80958   0.59240   1.000
    C78     C    0.46337   0.41641   0.25600   1.000
    C79     C    0.42146   0.51590   0.27999   1.000
    C80     C    0.20113   0.54671   0.09227   1.000
    C81     C    0.22433   0.42234   0.01950   1.000
    C82     C    0.52979   0.72040   0.97690   1.000
    C83     C    0.47023   0.69053   0.09210   1.000
    O84     O    0.41834   0.53277   0.35331   1.000
    O85     O    0.02314   0.89548   0.81692   1.000
    O86     O    0.10655   0.06669   0.77620   1.000
    O87     O    0.00440   0.85854   0.68994   1.000
    C88     C    0.03184   0.91520   0.74431   1.000
    C89     C    0.07754   0.01332   0.72051   1.000
    C90     C    0.29967   0.04661   0.90738   1.000
    C91     C    0.27562   0.92143   0.97911   1.000
    C92     C    0.96930   0.21967   0.02251   1.000
    C93     C    0.02987   0.19045   0.90754   1.000
    C94     C    0.96518   0.58397   0.24385   1.000
    C95     C    0.92182   0.48475   0.22027   1.000
    C96     C    0.69999   0.45329   0.40744   1.000
    C97     C    0.72460   0.57800   0.47970   1.000
    C98     C    0.03001   0.28011   0.52270   1.000
    C99     C    0.97021   0.30947   0.40752   1.000
    N100    N    0.27318   0.98009   0.42802   1.000
    N101    N    0.12906   0.94843   0.49208   1.000
    N102    N    0.11372   0.02964   0.44613   1.000
    N103    N    0.21759   0.12130   0.35776   1.000
    N104    N    0.52447   0.12363   0.51590   1.000
    N105    N    0.48502   0.10568   0.44100   1.000
    N106    N    0.49732   0.26411   0.45556   1.000
    N107    N    0.57129   0.26544   0.58621   1.000
    N108    N    0.72692   0.51934   0.92827   1.000
    N109    N    0.87094   0.55121   0.99243   1.000
    N110    N    0.88657   0.47032   0.94611   1.000
    N111    N    0.78302   0.37862   0.85744   1.000
    N112    N    0.47610   0.37617   0.01637   1.000
    N113    N    0.51511   0.39417   0.94139   1.000
    N114    N    0.50357   0.23574   0.95580   1.000
    N115    N    0.43029   0.23395   0.08653   1.000
    N116    N    0.77273   0.01988   0.07263   1.000
    N117    N    0.62901   0.05202   0.00870   1.000
    N118    N    0.61279   0.97061   0.05436   1.000
    N119    N    0.71590   0.87826   0.14220   1.000
    N120    N    0.02416   0.87676   0.98420   1.000
    N121    N    0.98439   0.89438   0.05891   1.000
    N122    N    0.99740   0.73605   0.04460   1.000
    N123    N    0.07139   0.73539   0.91396   1.000
    N124    N    0.22737   0.48062   0.57219   1.000
    N125    N    0.37093   0.44821   0.50823   1.000
    N126    N    0.38752   0.52927   0.55430   1.000
    N127    N    0.28484   0.62165   0.64252   1.000
    N128    N    0.97627   0.62336   0.48388   1.000
    N129    N    0.01554   0.60567   0.55878   1.000
    N130    N    0.00309   0.76401   0.54459   1.000
    N131    N    0.92981   0.76512   0.41382   1.000
    N132    N    0.72685   0.01989   0.57197   1.000
    N133    N    0.87097   0.05155   0.50791   1.000
    N134    N    0.88631   0.97035   0.55386   1.000
    N135    N    0.78244   0.87868   0.64224   1.000
    N136    N    0.47555   0.87635   0.48409   1.000
    N137    N    0.51501   0.89430   0.55893   1.000
    N138    N    0.50270   0.73587   0.54444   1.000
    N139    N    0.42872   0.73454   0.41370   1.000
    N140    N    0.27311   0.48063   0.07172   1.000
    N141    N    0.12909   0.44877   0.00756   1.000
    N142    N    0.11345   0.52966   0.05388   1.000
    N143    N    0.21700   0.62136   0.14256   1.000
    N144    N    0.52392   0.62381   0.98362   1.000
    N145    N    0.48491   0.60581   0.05860   1.000
    N146    N    0.49645   0.76424   0.04416   1.000
    N147    N    0.56973   0.76603   0.91346   1.000
    N148    N    0.22729   0.98011   0.92737   1.000
    N149    N    0.37101   0.94796   0.99129   1.000
    N150    N    0.38723   0.02937   0.94564   1.000
    N151    N    0.28412   0.12173   0.85770   1.000
    N152    N    0.97586   0.12322   0.01579   1.000
    N153    N    0.01563   0.10560   0.94108   1.000
    N154    N    0.00262   0.26393   0.95539   1.000
    N155    N    0.92863   0.26459   0.08603   1.000
    N156    N    0.77265   0.51937   0.42779   1.000
    N157    N    0.62909   0.55177   0.49170   1.000
    N158    N    0.61250   0.47071   0.44569   1.000
    N159    N    0.71518   0.37833   0.35747   1.000
    N160    N    0.02374   0.37662   0.51610   1.000
    N161    N    0.98448   0.39431   0.44121   1.000
    N162    N    0.99692   0.23596   0.45540   1.000
    N163    N    0.07019   0.23486   0.58617   1.000
    O164    O    0.47524   0.89533   0.31670   1.000
    O165    O    0.39486   0.06704   0.27612   1.000
    O166    O    0.49342   0.85836   0.18976   1.000
    O167    O    0.41782   0.02951   0.14689   1.000
    O168    O    0.52902   0.60431   0.81610   1.000
    O169    O    0.60489   0.43012   0.77590   1.000
    O170    O    0.51096   0.64073   0.68928   1.000
    O171    O    0.58169   0.46721   0.64668   1.000
    O172    O    0.97688   0.10451   0.18307   1.000
    O173    O    0.89348   0.93329   0.22375   1.000
    O174    O    0.99562   0.14144   0.31005   1.000
    O175    O    0.91949   0.96997   0.35280   1.000
    O176    O    0.02692   0.39551   0.68360   1.000
    O177    O    0.10678   0.56828   0.72371   1.000
    O178    O    0.00845   0.35898   0.81049   1.000
    O179    O    0.08002   0.53290   0.85294   1.000
    O180    O    0.52478   0.10464   0.68329   1.000
    O181    O    0.60517   0.93294   0.72387   1.000
    O182    O    0.50660   0.14161   0.81020   1.000
    O183    O    0.58221   0.97047   0.85310   1.000
    O184    O    0.47101   0.39566   0.18389   1.000
    O185    O    0.39515   0.56986   0.22400   1.000
    O186    O    0.48906   0.35925   0.31071   1.000
    O187    O    0.08054   0.03001   0.64713   1.000
    O188    O    0.97310   0.60448   0.31600   1.000
    O189    O    0.89325   0.43170   0.27628   1.000
    O190    O    0.99158   0.64100   0.18950   1.000
    O191    O    0.92000   0.46708   0.14705   1.000
loop_
    _geom_bond_atom_site_label_1
    _geom_bond_atom_site_label_2
    _geom_bond_distance
    _geom_bond_site_symmetry_2
    _ccdc_geom_bond_type
    H36    C91       1.08475  1_554   S
    N141   C81       1.32476      .   S
    N141   N142      1.39118      .   S
    N117   C63       1.32456      .   S
    N117   N118      1.39158  1_545   S
    H6     C57       1.08473  1_554   S
    N152   C92       1.35318      .   S
    N152   N153      1.39536  1_654   S
    N112   C58       1.35407      .   S
    N112   N113      1.39642  1_554   S
    C81    N140      1.36199      .   S
    C81    H30       1.08444  1_554   S
    C63    N116      1.36136      .   S
    C63    H12       1.08475  1_554   S
    C92    N155      1.35883      .   S
    C92    N154      1.36871  1_654   S
    C58    N115      1.35732      .   S
    C58    N114      1.36939  1_554   S
    N146   C83       1.35592      .   S
    N146   C82       1.36897  1_554   S
    N122   C65       1.35723      .   S
    N122   C64       1.36984  1_654   S
    N142   C80       1.34636      .   S
    N118   C62       1.34643      .   S
    N145   C83       1.32607      .   S
    N145   N144      1.39642  1_554   S
    N121   C65       1.32658      .   S
    N121   N120      1.39536  1_654   S
    N140   C80       1.37008      .   S
    N116   C62       1.37034  1_545   S
    N155   H41       1.02483      .   S
    N155   H40       1.02437      .   S
    N115   H11       1.02407      .   S
    N115   H10       1.02409      .   S
    C83    H31       1.08257      .   S
    C80    N143      1.36178      .   S
    C65    H13       1.08180      .   S
    C62    N119      1.36109      .   S
    N119   H14       1.02364      .   S
    N119   H15       1.03152      .   S
    N143   H32       1.02262      .   S
    N143   H33       1.03079      .   S
    O167   C49       1.26937      .   S
    O191   C95       1.26826      .   S
    O172   C60       1.26935      .   S
    O184   C78       1.26283      .   S
    O190   C94       1.26708      .   S
    O166   C48       1.26641      .   S
    C95    C94       1.54721      .   S
    C95    O189      1.26249      .   S
    C49    C48       1.54647  1_545   S
    C49    O165      1.26154      .   S
    O173   C61       1.26209      .   S
    O185   C79       1.26296      .   S
    C94    O188      1.26278      .   S
    C48    O164      1.26927      .   S
    C60    C61       1.54694  1_545   S
    C60    O174      1.26678      .   S
    C78    C79       1.54987      .   S
    C78    O186      1.27189      .   S
    C61    O175      1.26813      .   S
    C79    O84       1.26833      .   S
    H45    N159      1.03079      .   S
    H3     N103      1.03062      .   S
    H2     N103      1.02324      .   S
    H44    N159      1.02250      .   S
    H43    C99       1.08186      .   S
    H1     C53       1.08179      .   S
    N159   C96       1.36180      .   S
    N103   C50       1.36124      .   S
    H22    N131      1.02429      .   S
    H28    N139      1.02285      .   S
    C96    N156      1.36993      .   S
    C96    N158      1.34608      .   S
    C99    N161      1.32669      .   S
    C99    N162      1.35687      .   S
    C53    N105      1.32593      .   S
    C53    N106      1.35696      .   S
    C50    N100      1.37067  1_545   S
    C50    N102      1.34725      .   S
    H29    N139      1.02476      .   S
    H23    N131      1.02415      .   S
    N139   C76       1.35890      .   S
    N131   C70       1.35843      .   S
    N156   C97       1.36050      .   S
    N100   C51       1.36179      .   S
    N105   N104      1.39653      .   S
    N161   N160      1.39600  1_655   S
    N158   N157      1.39051      .   S
    N102   N101      1.39168  1_545   S
    N162   C98       1.36855  1_655   S
    N106   C52       1.36912      .   S
    C76    N136      1.35351      .   S
    C76    N138      1.36926      .   S
    C70    N128      1.35369      .   S
    C70    N130      1.36856  1_655   S
    C97    N157      1.32450      .   S
    C97    H42       1.08513      .   S
    C51    N101      1.32498      .   S
    C51    H0        1.08477      .   S
    N128   N129      1.39616  1_655   S
    N136   N137      1.39560      .   S
    H24    C75       1.08477      .   S
    H18    C69       1.08474      .   S
    N133   C75       1.32501      .   S
    N133   N134      1.39166  1_545   S
    N125   C69       1.32451      .   S
    N125   N126      1.39104      .   S
    N104   C52       1.35352      .   S
    N160   C98       1.35371      .   S
    C75    N132      1.36168      .   S
    C69    N124      1.36105      .   S
    C98    N163      1.35840      .   S
    C52    N107      1.35780      .   S
    N138   C77       1.35686      .   S
    N130   C71       1.35688      .   S
    N134   C74       1.34668      .   S
    N126   C68       1.34610      .   S
    N129   C71       1.32669      .   S
    N137   C77       1.32637      .   S
    N132   C74       1.37037  1_545   S
    N124   C68       1.36995      .   S
    N163   H47       1.02415      .   S
    N163   H46       1.02429      .   S
    N107   H5        1.02489      .   S
    N107   H4        1.02417      .   S
    C74    N135      1.36209      .   S
    C77    H25       1.08178      .   S
    C71    H19       1.08186      .   S
    C68    N127      1.36179      .   S
    N135   H26       1.02319      .   S
    N135   H27       1.03050      .   S
    N127   H20       1.02216      .   S
    N127   H21       1.03080      .   S
    O171   C55       1.26832      .   S
    O187   C89       1.26913      .   S
    O180   C72       1.26926      .   S
    O176   C66       1.26921      .   S
    O170   C54       1.26706      .   S
    O87    C88       1.26678      .   S
    C55    C54       1.54814      .   S
    C55    O169      1.26181      .   S
    C89    C88       1.54695  1_545   S
    C89    O86       1.26157      .   S
    O177   C67       1.26251      .   S
    O181   C73       1.26156      .   S
    C54    O168      1.26925      .   S
    C88    O85       1.26936      .   S
    C72    C73       1.54646  1_545   S
    C72    O182      1.26604      .   S
    C66    C67       1.54721      .   S
    C66    O178      1.26709      .   S
    C73    O183      1.26936      .   S
    C67    O179      1.26825      .   S
    H39    N151      1.03039      .   S
    H9     N111      1.03079      .   S
    H8     N111      1.02261      .   S
    H38    N151      1.02298      .   S
    H37    C93       1.08180      .   S
    H7     C59       1.08178      .   S
    N111   C56       1.36170      .   S
    N151   C90       1.36218      .   S
    H34    N147      1.02409      .   S
    H16    N123      1.02437      .   S
    C90    N148      1.37034  1_545   S
    C90    N150      1.34645      .   S
    C93    N153      1.32658      .   S
    C93    N154      1.35723      .   S
    C56    N108      1.37007      .   S
    C56    N110      1.34637      .   S
    C59    N113      1.32643      .   S
    C59    N114      1.35613      .   S
    H35    N147      1.02407      .   S
    H17    N123      1.02483      .   S
    N147   C82       1.35731      .   S
    N123   C64       1.35775      .   S
    N148   C91       1.36138      .   S
    N108   C57       1.36156      .   S
    N150   N149      1.39147  1_545   S
    N110   N109      1.39119      .   S
    C82    N144      1.35407      .   S
    C64    N120      1.35328      .   S
    C91    N149      1.32454      .   S
    C57    N109      1.32487      .   S
