# CIF file generated by openbabel 2.4.90, see http://openbabel.sf.net
data_I
_chemical_name_common ''
_cell_length_a 13.172
_cell_length_b 13.948
_cell_length_c 16.991
_cell_angle_alpha 90.05
_cell_angle_beta 90.016
_cell_angle_gamma 90.246
_space_group_name_H-M_alt 'P 1'
_space_group_name_Hall 'P 1'
loop_
    _symmetry_equiv_pos_as_xyz
    x,y,z
loop_
    _atom_site_label
    _atom_site_type_symbol
    _atom_site_fract_x
    _atom_site_fract_y
    _atom_site_fract_z
    _atom_site_occupancy
    Zr0     Zr   0.42612   0.97961   0.40648   1.000
    Zr1     Zr   0.47619   0.90842   0.07322   1.000
    Zr2     Zr   0.57406   0.52009   0.90666   1.000
    Zr3     Zr   0.52398   0.59159   0.57310   1.000
    Zr4     Zr   0.92518   0.02009   0.09364   1.000
    Zr5     Zr   0.97779   0.09148   0.42671   1.000
    Zr6     Zr   0.07504   0.48014   0.59354   1.000
    Zr7     Zr   0.02236   0.40845   0.92681   1.000
    Zr8     Zr   0.57391   0.02037   0.59351   1.000
    Zr9     Zr   0.52384   0.09156   0.92677   1.000
    Zr10    Zr   0.42596   0.47989   0.09333   1.000
    Zr11    Zr   0.47604   0.40839   0.42689   1.000
    Zr12    Zr   0.07485   0.97989   0.90635   1.000
    Zr13    Zr   0.02223   0.90850   0.57328   1.000
    Zr14    Zr   0.92499   0.51984   0.40645   1.000
    Zr15    Zr   0.97767   0.59153   0.07318   1.000
    N16     N    0.48401   0.28459   0.00103   1.000
    O17     O    0.46752   0.35631   0.02794   1.000
    O18     O    0.51430   0.37086   0.96253   1.000
    O19     O    0.49886   0.22412   0.97116   1.000
    N20     N    0.51601   0.71539   0.99895   1.000
    O21     O    0.53250   0.64367   0.97205   1.000
    O22     O    0.48572   0.62912   0.03746   1.000
    O23     O    0.50116   0.77586   0.02882   1.000
    N24     N    0.01638   0.78521   0.99935   1.000
    O25     O    0.03294   0.85677   0.97231   1.000
    O26     O    0.98558   0.87122   0.03781   1.000
    O27     O    0.00196   0.72450   0.02912   1.000
    N28     N    0.20501   0.51912   0.08077   1.000
    O29     O    0.27727   0.49969   0.08165   1.000
    O30     O    0.14037   0.47386   0.02398   1.000
    O31     O    0.12529   0.53986   0.07215   1.000
    N32     N    0.70443   0.98119   0.08137   1.000
    O33     O    0.64043   0.02649   0.02455   1.000
    O34     O    0.62446   0.96035   0.07258   1.000
    O35     O    0.77669   0.00059   0.08225   1.000
    N36     N    0.05400   0.96320   0.73250   1.000
    O37     O    0.05150   0.95044   0.79707   1.000
    O38     O    0.03366   0.92336   0.68206   1.000
    O39     O    0.05270   0.96623   0.67135   1.000
    N40     N    0.29559   0.01879   0.91862   1.000
    O41     O    0.22333   0.99940   0.91774   1.000
    O42     O    0.35960   0.97349   0.97544   1.000
    O43     O    0.37556   0.03963   0.92741   1.000
    N44     N    0.70421   0.48093   0.41885   1.000
    O45     O    0.77651   0.50026   0.41798   1.000
    O46     O    0.64037   0.52630   0.47562   1.000
    O47     O    0.62424   0.46024   0.42757   1.000
    N48     N    0.20519   0.01876   0.41909   1.000
    O49     O    0.27742   0.99930   0.41817   1.000
    O50     O    0.14042   0.97361   0.47589   1.000
    O51     O    0.12547   0.03966   0.42776   1.000
    N52     N    0.51667   0.21512   0.50075   1.000
    O53     O    0.53293   0.14356   0.52773   1.000
    O54     O    0.48612   0.12888   0.46225   1.000
    O55     O    0.50168   0.27569   0.47099   1.000
    N56     N    0.01600   0.28498   0.50069   1.000
    O57     O    0.03269   0.35668   0.52776   1.000
    O58     O    0.98536   0.37103   0.46226   1.000
    O59     O    0.00168   0.22435   0.47087   1.000
    N60     N    0.79484   0.98122   0.58089   1.000
    O61     O    0.72261   0.00068   0.58182   1.000
    O62     O    0.85961   0.02637   0.52410   1.000
    O63     O    0.87456   0.96032   0.57223   1.000
    N64     N    0.44500   0.96309   0.23231   1.000
    O65     O    0.44600   0.96603   0.17118   1.000
    O66     O    0.44784   0.95028   0.29695   1.000
    O67     O    0.46490   0.92324   0.18190   1.000
    N68     N    0.98401   0.71500   0.49930   1.000
    O69     O    0.96732   0.64330   0.47223   1.000
    O70     O    0.01465   0.62895   0.53773   1.000
    O71     O    0.99834   0.77563   0.52912   1.000
    N72     N    0.44306   0.46497   0.26798   1.000
    O73     O    0.44513   0.46778   0.32904   1.000
    O74     O    0.44577   0.45138   0.20330   1.000
    O75     O    0.46281   0.42440   0.31839   1.000
    N76     N    0.79501   0.48086   0.91922   1.000
    O77     O    0.72275   0.50029   0.91834   1.000
    O78     O    0.85966   0.52611   0.97601   1.000
    O79     O    0.87474   0.46012   0.92784   1.000
    N80     N    0.48334   0.78486   0.49923   1.000
    O81     O    0.46709   0.85642   0.47226   1.000
    O82     O    0.51390   0.87110   0.53772   1.000
    O83     O    0.49834   0.72429   0.52900   1.000
    N84     N    0.29581   0.51906   0.58112   1.000
    O85     O    0.22351   0.49972   0.58199   1.000
    O86     O    0.35965   0.47368   0.52434   1.000
    O87     O    0.37578   0.53974   0.57241   1.000
    N88     N    0.94603   0.03678   0.26747   1.000
    O89     O    0.96637   0.07662   0.31793   1.000
    O90     O    0.94733   0.03375   0.32861   1.000
    O91     O    0.94853   0.04954   0.20291   1.000
    N92     N    0.98363   0.21477   0.00064   1.000
    O93     O    0.96708   0.14321   0.02768   1.000
    O94     O    0.01444   0.12876   0.96218   1.000
    O95     O    0.99806   0.27548   0.97087   1.000
    N96     N    0.05587   0.46448   0.76777   1.000
    O97     O    0.05343   0.45116   0.70317   1.000
    O98     O    0.03564   0.42410   0.81821   1.000
    O99     O    0.05353   0.46758   0.82882   1.000
    N100    N    0.94416   0.53550   0.23216   1.000
    O101    O    0.96439   0.57588   0.18175   1.000
    O102    O    0.94650   0.53240   0.17114   1.000
    O103    O    0.94660   0.54883   0.29669   1.000
    N104    N    0.55696   0.53500   0.73193   1.000
    O105    O    0.55425   0.54860   0.79665   1.000
    O106    O    0.53722   0.57558   0.68156   1.000
    O107    O    0.55490   0.53220   0.67091   1.000
    N108    N    0.55503   0.03689   0.76767   1.000
    O109    O    0.55219   0.04970   0.70304   1.000
    O110    O    0.53513   0.07674   0.81808   1.000
    O111    O    0.55403   0.03395   0.82880   1.000
loop_
    _geom_bond_atom_site_label_1
    _geom_bond_atom_site_label_2
    _geom_bond_distance
    _geom_bond_site_symmetry_2
    _ccdc_geom_bond_type
    N16    O17       1.12166      .   S
    Zr10   O17       2.12381      .   S
    N16    O18       1.42564  1_554   S
    Zr2    O18       2.41722      .   S
    N16    O19       1.00395  1_554   S
    Zr9    O19       2.02446      .   S
    N20    O21       1.12164      .   S
    Zr2    O21       2.12379      .   S
    N20    O22       1.42567  1_556   S
    Zr10   O22       2.41724      .   S
    N20    O23       1.00392  1_556   S
    Zr1    O23       2.02452      .   S
    N24    O25       1.11971      .   S
    Zr12   O25       2.12257      .   S
    N24    O26       1.42620  1_456   S
    Zr4    O26       2.41988  1_545   S
    N24    O27       1.00419  1_556   S
    Zr15   O27       2.02489  1_655   S
    N28    O29       0.99088      .   S
    Zr10   O29       1.98898      .   S
    N28    O30       1.43126      .   S
    Zr7    O30       2.44091  1_556   S
    N28    O31       1.10023      .   S
    Zr15   O31       2.07668  1_655   S
    N32    O33       1.43075  1_565   S
    Zr9    O33       2.44038  1_556   S
    N32    O34       1.10162      .   S
    Zr1    O34       2.08018      .   S
    N32    O35       0.98853  1_565   S
    Zr4    O35       1.98291      .   S
    N36    O37       1.11203      .   S
    Zr12   O37       1.92568      .   S
    N36    O38       1.05501      .   S
    Zr13   O38       1.86558      .   S
    N36    O39       1.04001      .   S
    Zr13   O39       1.89225      .   S
    N40    O41       0.98853  1_545   S
    Zr12   O41       1.98290      .   S
    N40    O42       1.43079  1_545   S
    Zr1    O42       2.44044  1_554   S
    N40    O43       1.10164      .   S
    Zr9    O43       2.08019      .   S
    N44    O45       0.98888      .   S
    Zr14   O45       1.98326      .   S
    N44    O46       1.42905      .   S
    Zr3    O46       2.43584      .   S
    N44    O47       1.10104      .   S
    Zr11   O47       2.07881      .   S
    N48    O49       0.99060  1_545   S
    Zr0    O49       1.98900      .   S
    N48    O50       1.43264  1_545   S
    Zr13   O50       2.44507      .   S
    N48    O51       1.10082      .   S
    Zr5    O51       2.07813  1_655   S
    N52    O53       1.12016      .   S
    Zr8    O53       2.12225      .   S
    N52    O54       1.42518      .   S
    Zr0    O54       2.41652  1_565   S
    N52    O55       1.00525      .   S
    Zr11   O55       2.02713      .   S
    N56    O57       1.12127      .   S
    Zr6    O57       2.12462      .   S
    N56    O58       1.42653  1_455   S
    Zr14   O58       2.42014      .   S
    N56    O59       1.00262      .   S
    Zr5    O59       2.02219  1_655   S
    N60    O61       0.99060  1_565   S
    Zr8    O61       1.98900      .   S
    N60    O62       1.43262  1_565   S
    Zr5    O62       2.44504      .   S
    N60    O63       1.10082      .   S
    Zr13   O63       2.07814  1_455   S
    N64    O65       1.03957      .   S
    Zr1    O65       1.89079      .   S
    N64    O66       1.11351      .   S
    Zr0    O66       1.92678      .   S
    N64    O67       1.05446      .   S
    Zr1    O67       1.86402      .   S
    N68    O69       1.12127      .   S
    Zr14   O69       2.12456      .   S
    N68    O70       1.42655  1_655   S
    Zr6    O70       2.42017      .   S
    N68    O71       1.00263      .   S
    Zr13   O71       2.02221  1_455   S
    N72    O73       1.03849      .   S
    Zr11   O73       1.90286      .   S
    N72    O74       1.11578      .   S
    Zr10   O74       1.92855      .   S
    N72    O75       1.05996      .   S
    Zr11   O75       1.86536      .   S
    N76    O77       0.99087      .   S
    Zr2    O77       1.98897      .   S
    N76    O78       1.43127      .   S
    Zr15   O78       2.44093  1_554   S
    N76    O79       1.10023      .   S
    Zr7    O79       2.07668  1_455   S
    N80    O81       1.12010      .   S
    Zr0    O81       2.12217      .   S
    N80    O82       1.42512      .   S
    Zr8    O82       2.41668  1_545   S
    N80    O83       1.00533      .   S
    Zr3    O83       2.02717      .   S
    N84    O85       0.98887      .   S
    Zr6    O85       1.98325      .   S
    N84    O86       1.42912      .   S
    Zr11   O86       2.43559      .   S
    N84    O87       1.10102      .   S
    Zr3    O87       2.07884      .   S
    N88    O89       1.05513      .   S
    Zr5    O89       1.86572      .   S
    N88    O90       1.03989      .   S
    Zr5    O90       1.89258      .   S
    N88    O91       1.11189      .   S
    Zr4    O91       1.92554      .   S
    N92    O93       1.11974      .   S
    Zr4    O93       2.12259      .   S
    N92    O94       1.42617  1_654   S
    Zr12   O94       2.41987  1_565   S
    N92    O95       1.00416  1_554   S
    Zr7    O95       2.02486  1_455   S
    N96    O97       1.11350      .   S
    Zr6    O97       1.92738      .   S
    N96    O98       1.05950      .   S
    Zr7    O98       1.86648      .   S
    N96    O99       1.03870      .   S
    Zr7    O99       1.90281      .   S
    N100   O101      1.05905      .   S
    Zr15   O101      1.86593      .   S
    N100   O102      1.03815      .   S
    Zr15   O102      1.90232      .   S
    N100   O103      1.11241      .   S
    Zr14   O103      1.92952      .   S
    N104   O105      1.11645      .   S
    Zr2    O105      1.92921      .   S
    N104   O106      1.05941      .   S
    Zr3    O106      1.86469      .   S
    N104   O107      1.03781      .   S
    Zr3    O107      1.90227      .   S
    N108   O109      1.11347      .   S
    Zr8    O109      1.92673      .   S
    N108   O110      1.05439      .   S
    Zr9    O110      1.86419      .   S
    N108   O111      1.03962      .   S
    Zr9    O111      1.89083      .   S
