# CIF file generated by openbabel 2.4.90, see http://openbabel.sf.net
data_I
_chemical_name_common ''
_cell_length_a 13.172
_cell_length_b 13.948
_cell_length_c 16.991
_cell_angle_alpha 90.05
_cell_angle_beta 90.016
_cell_angle_gamma 90.246
_space_group_name_H-M_alt 'P 1'
_space_group_name_Hall 'P 1'
loop_
    _symmetry_equiv_pos_as_xyz
    x,y,z
loop_
    _atom_site_label
    _atom_site_type_symbol
    _atom_site_fract_x
    _atom_site_fract_y
    _atom_site_fract_z
    _atom_site_occupancy
    N0      N    0.48401   0.28459   0.00103   1.000
    N1      N    0.51601   0.71539   0.99895   1.000
    N2      N    0.01638   0.78521   0.99935   1.000
    N3      N    0.20501   0.51912   0.08077   1.000
    N4      N    0.70443   0.98119   0.08137   1.000
    N5      N    0.05400   0.96320   0.73250   1.000
    N6      N    0.29559   0.01879   0.91862   1.000
    N7      N    0.70421   0.48093   0.41885   1.000
    N8      N    0.20519   0.01876   0.41909   1.000
    N9      N    0.51667   0.21512   0.50075   1.000
    N10     N    0.01600   0.28498   0.50069   1.000
    N11     N    0.79484   0.98122   0.58089   1.000
    N12     N    0.44500   0.96309   0.23231   1.000
    N13     N    0.98401   0.71500   0.49930   1.000
    N14     N    0.44306   0.46497   0.26798   1.000
    N15     N    0.79501   0.48086   0.91922   1.000
    N16     N    0.48334   0.78486   0.49923   1.000
    N17     N    0.29581   0.51906   0.58112   1.000
    N18     N    0.94603   0.03678   0.26747   1.000
    N19     N    0.98363   0.21477   0.00064   1.000
    N20     N    0.05587   0.46448   0.76777   1.000
    N21     N    0.94416   0.53550   0.23216   1.000
    N22     N    0.55696   0.53500   0.73193   1.000
    N23     N    0.55503   0.03689   0.76767   1.000
    Zr24    Zr   0.57406   0.52009   0.90666   1.000
    O25     O    0.64841   0.51019   0.91250   1.000
    O26     O    0.56416   0.53434   0.85166   1.000
    O27     O    0.55328   0.58188   0.93935   1.000
    O28     O    0.54418   0.44547   0.93459   1.000
    Zr29    Zr   0.97779   0.09148   0.42671   1.000
    O30     O    0.91870   0.05892   0.47541   1.000
    O31     O    0.97208   0.08405   0.37232   1.000
    O32     O    0.98973   0.15791   0.44879   1.000
    O33     O    0.96256   0.06261   0.37766   1.000
    O34     O    0.05163   0.06557   0.42723   1.000
    Zr35    Zr   0.92518   0.02009   0.09364   1.000
    O36     O    0.94613   0.08165   0.06066   1.000
    O37     O    0.93685   0.03482   0.14828   1.000
    O38     O    0.85094   0.01034   0.08795   1.000
    O39     O    0.95538   0.94566   0.06573   1.000
    Zr40    Zr   0.02223   0.90850   0.57328   1.000
    O41     O    0.01029   0.84207   0.55120   1.000
    O42     O    0.94839   0.93441   0.57276   1.000
    O43     O    0.08132   0.94106   0.52458   1.000
    O44     O    0.02795   0.91593   0.62767   1.000
    O45     O    0.03746   0.93737   0.62232   1.000
    Zr46    Zr   0.92499   0.51984   0.40645   1.000
    O47     O    0.95517   0.44543   0.43436   1.000
    O48     O    0.93579   0.53433   0.35157   1.000
    O49     O    0.85075   0.51005   0.41222   1.000
    O50     O    0.94615   0.58157   0.43934   1.000
    Zr51    Zr   0.42612   0.97961   0.40648   1.000
    O52     O    0.43698   0.96494   0.35172   1.000
    O53     O    0.35177   0.98945   0.41233   1.000
    O54     O    0.45612   0.05424   0.43436   1.000
    O55     O    0.44660   0.91801   0.43937   1.000
    Zr56    Zr   0.52398   0.59159   0.57310   1.000
    O57     O    0.51116   0.65794   0.55105   1.000
    O58     O    0.53944   0.56189   0.62200   1.000
    O59     O    0.53060   0.58358   0.62733   1.000
    O60     O    0.58218   0.55894   0.52436   1.000
    O61     O    0.44988   0.56566   0.57276   1.000
    Zr62    Zr   0.57391   0.02037   0.59351   1.000
    O63     O    0.55342   0.08197   0.56062   1.000
    O64     O    0.64826   0.01053   0.58766   1.000
    O65     O    0.56305   0.03503   0.64827   1.000
    O66     O    0.54391   0.94573   0.56562   1.000
    Zr67    Zr   0.02236   0.40845   0.92681   1.000
    O68     O    0.02900   0.41628   0.87251   1.000
    O69     O    0.03795   0.43801   0.87782   1.000
    O70     O    0.08136   0.44116   0.97539   1.000
    O71     O    0.94855   0.43429   0.92733   1.000
    O72     O    0.01021   0.34196   0.94884   1.000
    Zr73    Zr   0.42596   0.47989   0.09333   1.000
    O74     O    0.43587   0.46563   0.14831   1.000
    O75     O    0.45584   0.55451   0.06539   1.000
    O76     O    0.44674   0.41810   0.06063   1.000
    O77     O    0.35162   0.48979   0.08749   1.000
    Zr78    Zr   0.07485   0.97989   0.90635   1.000
    O79     O    0.06317   0.96516   0.85171   1.000
    O80     O    0.14909   0.98964   0.91205   1.000
    O81     O    0.05390   0.91833   0.93933   1.000
    O82     O    0.04464   0.05432   0.93426   1.000
    Zr83    Zr   0.47604   0.40839   0.42689   1.000
    O84     O    0.46942   0.41640   0.37264   1.000
    O85     O    0.41785   0.44104   0.47562   1.000
    O86     O    0.46058   0.43809   0.37797   1.000
    O87     O    0.55014   0.43432   0.42723   1.000
    O88     O    0.48886   0.34204   0.44894   1.000
    Zr89    Zr   0.07504   0.48014   0.59354   1.000
    O90     O    0.04484   0.55455   0.56563   1.000
    O91     O    0.14927   0.48993   0.58777   1.000
    O92     O    0.06423   0.46565   0.64835   1.000
    O93     O    0.05386   0.41841   0.56065   1.000
    Zr94    Zr   0.52384   0.09156   0.92677   1.000
    O95     O    0.53893   0.06276   0.87779   1.000
    O96     O    0.52948   0.08415   0.87242   1.000
    O97     O    0.58213   0.05903   0.97566   1.000
    O98     O    0.51135   0.15784   0.94896   1.000
    O99     O    0.44970   0.06560   0.92709   1.000
    Zr100   Zr   0.97767   0.59153   0.07318   1.000
    O101    O    0.97103   0.58370   0.12746   1.000
    O102    O    0.96208   0.56196   0.12216   1.000
    O103    O    0.05148   0.56569   0.07266   1.000
    O104    O    0.98981   0.65801   0.05115   1.000
    O105    O    0.91866   0.55882   0.02460   1.000
    Zr106   Zr   0.47619   0.90842   0.07322   1.000
    O107    O    0.46109   0.93722   0.12220   1.000
    O108    O    0.48868   0.84214   0.05102   1.000
    O109    O    0.41789   0.94095   0.02433   1.000
    O110    O    0.55032   0.93439   0.07290   1.000
    O111    O    0.47054   0.91583   0.12756   1.000
loop_
    _geom_bond_atom_site_label_1
    _geom_bond_atom_site_label_2
    _geom_bond_distance
    _geom_bond_site_symmetry_2
    _ccdc_geom_bond_type
    Zr24   O25       0.99448      .   S
    N15    O25       1.97894      .   S
    Zr24   O26       0.96460      .   S
    N22    O26       2.03654      .   S
    Zr24   O27       1.06190      .   S
    N1     O27       2.17702      .   S
    Zr24   O28       1.20861      .   S
    N0     O28       2.63204  1_554   S
    Zr29   O30       1.22252      .   S
    N11    O30       2.65303  1_565   S
    Zr29   O31       0.93286      .   S
    N18    O31       1.92918      .   S
    Zr29   O32       1.01110      .   S
    N10    O32       2.00755  1_455   S
    Zr29   O33       0.94629      .   S
    N18    O33       1.91847      .   S
    Zr29   O34       1.03906  1_655   S
    N8     O34       2.13253      .   S
    Zr35   O36       1.06130      .   S
    N19    O36       2.17424      .   S
    Zr35   O37       0.96277      .   S
    N18    O37       2.02896      .   S
    Zr35   O38       0.99146      .   S
    N4     O38       1.97354  1_565   S
    Zr35   O39       1.20994  1_545   S
    N2     O39       2.63396  1_456   S
    Zr40   O41       1.01110      .   S
    N13    O41       2.00757  1_655   S
    Zr40   O42       1.03907  1_455   S
    N11    O42       2.13253      .   S
    Zr40   O43       1.22254      .   S
    N8     O43       2.65308  1_545   S
    Zr40   O44       0.93279      .   S
    N5     O44       1.92899      .   S
    Zr40   O45       0.94612      .   S
    N5     O45       1.91839      .   S
    Zr46   O47       1.21007      .   S
    N10    O47       2.63440  1_455   S
    Zr46   O48       0.96476      .   S
    N21    O48       2.03203      .   S
    Zr46   O49       0.99163      .   S
    N7     O49       1.97410      .   S
    Zr46   O50       1.06228      .   S
    N13    O50       2.17685      .   S
    Zr51   O52       0.96339      .   S
    N12    O52       2.03169      .   S
    Zr51   O53       0.99450      .   S
    N8     O53       1.97861  1_545   S
    Zr51   O54       1.20826  1_565   S
    N9     O54       2.63122      .   S
    Zr51   O55       1.06108      .   S
    N16    O55       2.17454      .   S
    Zr56   O57       1.01359      .   S
    N16    O57       2.01285      .   S
    Zr56   O58       0.95114      .   S
    N22    O58       1.91936      .   S
    Zr56   O59       0.93235      .   S
    N22    O59       1.93442      .   S
    Zr56   O60       1.21792      .   S
    N7     O60       2.64485      .   S
    Zr56   O61       1.03942      .   S
    N17    O61       2.13314      .   S
    Zr62   O63       1.06112      .   S
    N9     O63       2.17464      .   S
    Zr62   O64       0.99450      .   S
    N11    O64       1.97862  1_565   S
    Zr62   O65       0.96337      .   S
    N23    O65       2.03163      .   S
    Zr62   O66       1.20834  1_545   S
    N16    O66       2.63125      .   S
    Zr67   O68       0.93324      .   S
    N20    O68       1.93523      .   S
    Zr67   O69       0.95140      .   S
    N20    O69       1.92069      .   S
    Zr67   O70       1.22045      .   S
    N3     O70       2.64963  1_554   S
    Zr67   O71       1.03834  1_455   S
    N15    O71       2.13124      .   S
    Zr67   O72       1.01243      .   S
    N19    O72       2.01048  1_654   S
    Zr73   O74       0.96428      .   S
    N14    O74       2.03553      .   S
    Zr73   O75       1.20862      .   S
    N1     O75       2.63208  1_556   S
    Zr73   O76       1.06191      .   S
    N0     O76       2.17705      .   S
    Zr73   O77       0.99449      .   S
    N3     O77       1.97894      .   S
    Zr78   O79       0.96284      .   S
    N5     O79       2.02917      .   S
    Zr78   O80       0.99145      .   S
    N6     O80       1.97353  1_545   S
    Zr78   O81       1.06129      .   S
    N2     O81       2.17419      .   S
    Zr78   O82       1.20993  1_565   S
    N19    O82       2.63393  1_654   S
    Zr83   O84       0.93268      .   S
    N14    O84       1.93535      .   S
    Zr83   O85       1.21780      .   S
    N17    O85       2.64479      .   S
    Zr83   O86       0.95143      .   S
    N14    O86       1.92035      .   S
    Zr83   O87       1.03941      .   S
    N7     O87       2.13313      .   S
    Zr83   O88       1.01357      .   S
    N9     O88       2.01276      .   S
    Zr89   O90       1.21009      .   S
    N13    O90       2.63444  1_655   S
    Zr89   O91       0.99163      .   S
    N17    O91       1.97409      .   S
    Zr89   O92       0.96369      .   S
    N20    O92       2.03203      .   S
    Zr89   O93       1.06231      .   S
    N10    O93       2.17687      .   S
    Zr94   O95       0.94542      .   S
    N23    O95       1.91712      .   S
    Zr94   O96       0.93209      .   S
    N23    O96       1.92765      .   S
    Zr94   O97       1.22019      .   S
    N4     O97       2.64881  1_564   S
    Zr94   O98       1.01223      .   S
    N0     O98       2.01010  1_554   S
    Zr94   O99       1.04010      .   S
    N6     O99       2.13442      .   S
    Zr100  O101      0.93297      .   S
    N21    O101      1.93446      .   S
    Zr100  O102      0.95116      .   S
    N21    O102      1.91988      .   S
    Zr100  O103      1.03834  1_655   S
    N3     O103      2.13123      .   S
    Zr100  O104      1.01244      .   S
    N2     O104      2.01052  1_456   S
    Zr100  O105      1.22047      .   S
    N15    O105      2.64966  1_556   S
    Zr106  O107      0.94540      .   S
    N12    O107      1.91706      .   S
    Zr106  O108      1.01226      .   S
    N1     O108      2.01011  1_556   S
    Zr106  O109      1.22022      .   S
    N6     O109      2.64888  1_546   S
    Zr106  O110      1.04009      .   S
    N4     O110      2.13440      .   S
    Zr106  O111      0.93201      .   S
    N12    O111      1.92765      .   S
