# CIF file generated by openbabel 2.4.90, see http://openbabel.sf.net
data_I
_chemical_name_common 'VESTA_phase_1'
_cell_length_a 16.243
_cell_length_b 16.245
_cell_length_c 23.175
_cell_angle_alpha 73.291
_cell_angle_beta 73.07
_cell_angle_gamma 67.44
_space_group_name_H-M_alt 'P 1'
_space_group_name_Hall 'P 1'
loop_
    _symmetry_equiv_pos_as_xyz
    x,y,z
loop_
    _atom_site_label
    _atom_site_type_symbol
    _atom_site_fract_x
    _atom_site_fract_y
    _atom_site_fract_z
    _atom_site_occupancy
    Zn0     Zn   0.99500   0.59048   0.48820   1.000
    Zn1     Zn   0.40940   0.00487   0.01223   1.000
    Zn2     Zn   0.00510   0.40947   0.51170   1.000
    Zn3     Zn   0.59065   0.99507   0.98771   1.000
    H4      H    0.22169   0.55279   0.56448   1.000
    H5      H    0.35622   0.50777   0.61367   1.000
    H6      H    0.37446   0.22729   0.64886   1.000
    H7      H    0.24034   0.27308   0.59988   1.000
    H8      H    0.59952   0.25207   0.69216   1.000
    H9      H    0.62031   0.14960   0.79507   1.000
    H10     H    0.33135   0.20898   0.85220   1.000
    H11     H    0.30947   0.31194   0.75086   1.000
    H12     H    0.09876   0.71119   0.40397   1.000
    H13     H    0.11637   0.85991   0.39972   1.000
    H14     H    0.90603   0.88440   0.56529   1.000
    H15     H    0.89886   0.73535   0.56210   1.000
    H16     H    0.07464   0.99092   0.44104   1.000
    H17     H    0.44723   0.77614   0.93780   1.000
    H18     H    0.49210   0.64136   0.88857   1.000
    H19     H    0.77305   0.62280   0.85235   1.000
    H20     H    0.72741   0.75730   0.90127   1.000
    H21     H    0.74804   0.39916   0.80730   1.000
    H22     H    0.84963   0.37995   0.70355   1.000
    H23     H    0.78831   0.66886   0.64874   1.000
    H24     H    0.68622   0.68919   0.75102   1.000
    H25     H    0.28759   0.90203   0.09646   1.000
    H26     H    0.13893   0.88447   0.10046   1.000
    H27     H    0.11624   0.09343   0.93489   1.000
    H28     H    0.26521   0.10055   0.93828   1.000
    H29     H    0.00000   0.92558   0.05880   1.000
    H30     H    0.77822   0.44716   0.43556   1.000
    H31     H    0.64370   0.49223   0.38635   1.000
    H32     H    0.62566   0.77266   0.35107   1.000
    H33     H    0.75987   0.72682   0.39997   1.000
    H34     H    0.40052   0.74787   0.30777   1.000
    H35     H    0.37975   0.85030   0.20480   1.000
    H36     H    0.66871   0.79100   0.14770   1.000
    H37     H    0.69057   0.68808   0.24912   1.000
    H38     H    0.90129   0.28882   0.59598   1.000
    H39     H    0.88365   0.14010   0.60026   1.000
    H40     H    0.09400   0.11552   0.43469   1.000
    H41     H    0.10118   0.26458   0.43782   1.000
    H42     H    0.92538   0.00000   0.55890   1.000
    H43     H    0.55281   0.22383   0.06206   1.000
    H44     H    0.50798   0.35859   0.11131   1.000
    H45     H    0.22703   0.37711   0.14762   1.000
    H46     H    0.27263   0.24262   0.09871   1.000
    H47     H    0.25215   0.60077   0.19262   1.000
    H48     H    0.15063   0.62000   0.29639   1.000
    H49     H    0.21166   0.33112   0.35115   1.000
    H50     H    0.31381   0.31076   0.24889   1.000
    H51     H    0.71245   0.09791   0.90349   1.000
    H52     H    0.86111   0.11549   0.89950   1.000
    H53     H    0.88378   0.90655   0.06508   1.000
    H54     H    0.73482   0.89941   0.06169   1.000
    H55     H    0.99138   0.07439   0.94117   1.000
    C56     C    0.14165   0.44274   0.55139   1.000
    C57     C    0.22257   0.41571   0.57975   1.000
    C58     C    0.25565   0.48181   0.58320   1.000
    C59     C    0.32992   0.45720   0.61040   1.000
    C60     C    0.37149   0.36566   0.63432   1.000
    C61     C    0.34046   0.29847   0.63049   1.000
    C62     C    0.26599   0.32396   0.60340   1.000
    C63     C    0.45384   0.28640   0.71540   1.000
    C64     C    0.54148   0.24159   0.72775   1.000
    C65     C    0.55259   0.18519   0.78478   1.000
    C66     C    0.47718   0.17188   0.82992   1.000
    C67     C    0.38997   0.21810   0.81685   1.000
    C68     C    0.37755   0.27560   0.76031   1.000
    C69     C    0.48915   0.10952   0.89076   1.000
    C70     C    0.05755   0.75295   0.43820   1.000
    C71     C    0.06667   0.83524   0.43646   1.000
    C72     C    0.01244   0.88612   0.48214   1.000
    C73     C    0.95022   0.84945   0.52800   1.000
    C74     C    0.94503   0.76687   0.52693   1.000
    C75     C    0.02335   0.97207   0.47973   1.000
    C76     C    0.55745   0.85681   0.94980   1.000
    C77     C    0.58453   0.77530   0.92184   1.000
    C78     C    0.51829   0.74203   0.91888   1.000
    C79     C    0.54280   0.66765   0.89163   1.000
    C80     C    0.63442   0.62602   0.86730   1.000
    C81     C    0.70180   0.65695   0.87095   1.000
    C82     C    0.67640   0.73158   0.89805   1.000
    C83     C    0.71286   0.54473   0.78530   1.000
    C84     C    0.75787   0.45755   0.77200   1.000
    C85     C    0.81379   0.44730   0.71456   1.000
    C86     C    0.82634   0.52315   0.66987   1.000
    C87     C    0.77979   0.60992   0.68382   1.000
    C88     C    0.72277   0.62146   0.74084   1.000
    C89     C    0.88862   0.51201   0.60868   1.000
    C90     C    0.24626   0.94294   0.06215   1.000
    C91     C    0.16398   0.93386   0.06376   1.000
    C92     C    0.11363   0.98768   0.01800   1.000
    C93     C    0.15077   0.04955   0.97204   1.000
    C94     C    0.23330   0.05472   0.97343   1.000
    C95     C    0.02772   0.97675   0.02025   1.000
    C96     C    0.85842   0.55709   0.44857   1.000
    C97     C    0.77751   0.58420   0.42018   1.000
    C98     C    0.74430   0.51815   0.41682   1.000
    C99     C    0.67006   0.54278   0.38959   1.000
    C100    C    0.62854   0.63432   0.36564   1.000
    C101    C    0.65964   0.70148   0.36944   1.000
    C102    C    0.73413   0.67596   0.39652   1.000
    C103    C    0.54619   0.71359   0.28454   1.000
    C104    C    0.45857   0.75836   0.27219   1.000
    C105    C    0.44746   0.81475   0.21515   1.000
    C106    C    0.52289   0.82806   0.17002   1.000
    C107    C    0.61008   0.78188   0.18311   1.000
    C108    C    0.62250   0.72440   0.23965   1.000
    C109    C    0.51094   0.89040   0.10916   1.000
    C110    C    0.94249   0.24704   0.56175   1.000
    C111    C    0.93336   0.16474   0.56351   1.000
    C112    C    0.98759   0.11385   0.51785   1.000
    C113    C    0.04981   0.15050   0.47178   1.000
    C114    C    0.05501   0.23307   0.47300   1.000
    C115    C    0.97667   0.02789   0.52026   1.000
    C116    C    0.44257   0.14313   0.05012   1.000
    C117    C    0.41551   0.22466   0.07805   1.000
    C118    C    0.48176   0.25791   0.08102   1.000
    C119    C    0.45727   0.33230   0.10826   1.000
    C120    C    0.36566   0.37391   0.13259   1.000
    C121    C    0.29826   0.34297   0.12900   1.000
    C122    C    0.32365   0.26833   0.10192   1.000
    C123    C    0.28725   0.45520   0.21461   1.000
    C124    C    0.24228   0.54239   0.22787   1.000
    C125    C    0.18644   0.55265   0.28538   1.000
    C126    C    0.17378   0.47681   0.33004   1.000
    C127    C    0.22027   0.39005   0.31609   1.000
    C128    C    0.27727   0.37849   0.25907   1.000
    C129    C    0.11150   0.48802   0.39122   1.000
    C130    C    0.75378   0.05701   0.93781   1.000
    C131    C    0.83606   0.06610   0.93620   1.000
    C132    C    0.88640   0.01229   0.98196   1.000
    C133    C    0.84926   0.95042   0.02793   1.000
    C134    C    0.76673   0.94524   0.02650   1.000
    C135    C    0.97230   0.02323   0.97972   1.000
    N136    N    0.99754   0.71911   0.48260   1.000
    N137    N    0.28059   0.00257   0.01776   1.000
    N138    N    0.00250   0.28086   0.51731   1.000
    N139    N    0.71945   0.99738   0.98219   1.000
    O140    O    0.10579   0.52725   0.53080   1.000
    O141    O    0.11474   0.37926   0.55010   1.000
    O142    O    0.44779   0.34391   0.65867   1.000
    O143    O    0.56806   0.07996   0.90355   1.000
    O144    O    0.41929   0.09023   0.92538   1.000
    O145    O    0.47288   0.89246   0.97095   1.000
    O146    O    0.62090   0.88456   0.94999   1.000
    O147    O    0.65616   0.54992   0.84260   1.000
    O148    O    0.91879   0.43331   0.59533   1.000
    O149    O    0.90745   0.58213   0.57445   1.000
    O150    O    0.89368   0.47266   0.46970   1.000
    O151    O    0.88595   0.62043   0.44927   1.000
    O152    O    0.55223   0.65610   0.34129   1.000
    O153    O    0.43208   0.91983   0.09631   1.000
    O154    O    0.58076   0.90982   0.07460   1.000
    O155    O    0.52711   0.10763   0.02881   1.000
    O156    O    0.37913   0.11530   0.05004   1.000
    O157    O    0.34395   0.45000   0.15732   1.000
    O158    O    0.08217   0.56648   0.40482   1.000
    O159    O    0.09192   0.41815   0.42523   1.000
loop_
    _geom_bond_atom_site_label_1
    _geom_bond_atom_site_label_2
    _geom_bond_distance
    _geom_bond_site_symmetry_2
    _ccdc_geom_bond_type
    Zn1    N137      2.07270      .   S
    Zn1    O156      2.05037      .   S
    Zn1    O153      2.07860  1_545   S
    Zn1    O144      2.09228  1_554   S
    Zn1    O145      2.07320  1_544   S
    N137   C90       1.34722  1_545   S
    N137   C94       1.35015  1_554   S
    C92    C95       1.45733      .   S
    C92    C91       1.40751      .   S
    C92    C93       1.40859  1_564   S
    C95    H29       1.14789      .   S
    C95    C135      1.35127  1_464   S
    C134   C133      1.38528      .   S
    C134   H54       1.09030      .   S
    C134   N139      1.34976  1_554   S
    C133   H53       1.08871      .   S
    C133   C132      1.40865  1_564   S
    O155   C116      1.27410      .   S
    O155   Zn3       2.07287  1_544   S
    O156   C116      1.27498      .   S
    C116   C117      1.49897      .   S
    H43    C118      1.08893      .   S
    C90    C91       1.38871      .   S
    C90    H25       1.09055      .   S
    C91    H26       1.09050      .   S
    O154   C109      1.27569      .   S
    O154   Zn3       2.09218  1_554   S
    C117   C118      1.40176      .   S
    C117   C122      1.40298      .   S
    C118   C119      1.39307      .   S
    O153   C109      1.27606      .   S
    H46    C122      1.08913      .   S
    C122   C121      1.39190      .   S
    C119   H44       1.08951      .   S
    C119   C120      1.39562      .   S
    C109   C106      1.49660      .   S
    C121   C120      1.39891      .   S
    C121   H45       1.08958      .   S
    C120   O157      1.39144      .   S
    H36    C107      1.08872      .   S
    O157   C123      1.38229      .   S
    C106   C107      1.40179      .   S
    C106   C105      1.40305      .   S
    C107   C108      1.39120      .   S
    H47    C124      1.08967      .   S
    H35    C105      1.08961      .   S
    C123   C124      1.39994      .   S
    C123   C128      1.40016      .   S
    C105   C104      1.39099      .   S
    C124   C125      1.39084      .   S
    C108   H37       1.08865      .   S
    C108   C103      1.40007      .   S
    H50    C128      1.08863      .   S
    C128   C127      1.39116      .   S
    C104   C103      1.40001      .   S
    C104   H34       1.08972      .   S
    C103   O152      1.38203      .   S
    C125   H48       1.08919      .   S
    C125   C126      1.40296      .   S
    C127   C126      1.40166      .   S
    C127   H49       1.08884      .   S
    C126   C129      1.49613      .   S
    O152   C100      1.39136      .   S
    H32    C101      1.08960      .   S
    C100   C101      1.39897      .   S
    C100   C99       1.39580      .   S
    C101   C102      1.39191      .   S
    H31    C99       1.08949      .   S
    C99    C98       1.39294      .   S
    C129   O158      1.27617      .   S
    C129   O159      1.27561      .   S
    C102   H33       1.08915      .   S
    C102   C97       1.40294      .   S
    H13    C71       1.09043      .   S
    H12    C70       1.09057      .   S
    O158   Zn0       2.07534  1_455   S
    C98    C97       1.40179      .   S
    C98    H30       1.08897      .   S
    C97    C96       1.49897      .   S
    O159   Zn2       2.09010      .   S
    H40    C113      1.08880      .   S
    C71    C70       1.38860      .   S
    C71    C72       1.40749      .   S
    H41    C114      1.08975      .   S
    C70    N136      1.34644  1_455   S
    H16    C75       1.09301      .   S
    C96    O151      1.27508      .   S
    C96    O150      1.27405      .   S
    O151   Zn0       2.05069      .   S
    O150   Zn2       2.07430  1_655   S
    C113   C114      1.38479      .   S
    C113   C112      1.40836  1_455   S
    C114   N138      1.35088      .   S
    C75    C72       1.45717      .   S
    C75    C115      1.35167  1_465   S
    C72    C73       1.40638  1_455   S
    N136   Zn0       2.07166      .   S
    N136   C74       1.35104      .   S
    Zn0    O140      2.07399  1_655   S
    Zn0    O149      2.09104      .   S
    Zn2    N138      2.07172      .   S
    Zn2    O141      2.05064      .   S
    Zn2    O148      2.07471  1_455   S
    N138   C110      1.34671  1_455   S
    C112   C115      1.45726      .   S
    C112   C111      1.40736      .   S
    C115   H42       1.15031      .   S
    C74    C73       1.38356      .   S
    C74    H15       1.08980      .   S
    C73    H14       1.09213      .   S
    O140   C56       1.27409      .   S
    O141   C56       1.27543      .   S
    C56    C57       1.49897      .   S
    C110   C111      1.38862      .   S
    C110   H38       1.09065      .   S
    C111   H39       1.09045      .   S
    H4     C58       1.08899      .   S
    O149   C89       1.27549      .   S
    C57    C58       1.40180      .   S
    C57    C62       1.40291      .   S
    C58    C59       1.39299      .   S
    O148   C89       1.27621      .   S
    H7     C62       1.08909      .   S
    C62    C61       1.39192      .   S
    C89    C86       1.49625      .   S
    C59    H5        1.08949      .   S
    C59    C60       1.39577      .   S
    C61    C60       1.39888      .   S
    C61    H6        1.08959      .   S
    C60    O142      1.39136      .   S
    H23    C87       1.08876      .   S
    O142   C63       1.38188      .   S
    C86    C87       1.40166      .   S
    C86    C85       1.40303      .   S
    C87    C88       1.39129      .   S
    H8     C64       1.08975      .   S
    H22    C85       1.08922      .   S
    C85    C84       1.38994      .   S
    C63    C64       1.40016      .   S
    C63    C68       1.40017      .   S
    C64    C65       1.39093      .   S
    C88    H24       1.08860      .   S
    C88    C83       1.40003      .   S
    H11    C68       1.08857      .   S
    C68    C67       1.39129      .   S
    C84    C83       1.40026      .   S
    C84    H21       1.09013      .   S
    C65    H9        1.08921      .   S
    C65    C66       1.40305      .   S
    C83    O147      1.38248      .   S
    C67    C66       1.40180      .   S
    C67    H10       1.08801      .   S
    C66    C69       1.49646      .   S
    O147   C80       1.39101      .   S
    H19    C81       1.08963      .   S
    C80    C81       1.39924      .   S
    C80    C79       1.39581      .   S
    C81    C82       1.39190      .   S
    H18    C79       1.08947      .   S
    C69    O143      1.27610      .   S
    C69    O144      1.27570      .   S
    C79    C78       1.39300      .   S
    C82    H20       1.08915      .   S
    C82    C77       1.40294      .   S
    H52    C131      1.09046      .   S
    H51    C130      1.09065      .   S
    O143   Zn3       2.07905  1_545   S
    C78    C77       1.40177      .   S
    C78    H17       1.08895      .   S
    C77    C76       1.49897      .   S
    H27    C93       1.08876      .   S
    C131   C130      1.38867      .   S
    C131   C132      1.40746      .   S
    C130   N139      1.34710  1_545   S
    H28    C94       1.08994      .   S
    H55    C135      1.09288      .   S
    C76    O146      1.27505      .   S
    C76    O145      1.27410      .   S
    O146   Zn3       2.05031      .   S
    C93    C94       1.38504      .   S
    C135   C132      1.45735      .   S
    N139   Zn3       2.07272      .   S
    Zn0    Zn2       2.78048  1_655   S
    Zn1    Zn3       2.78106  1_544   S
