# CIF file generated by openbabel 2.4.90, see http://openbabel.sf.net
data_I
_chemical_name_common ''
_cell_length_a 5.7155
_cell_length_b 10.6165
_cell_length_c 16.195
_cell_angle_alpha 90.001
_cell_angle_beta 90.007
_cell_angle_gamma 92.9
_space_group_name_H-M_alt 'P 1'
_space_group_name_Hall 'P 1'
loop_
    _symmetry_equiv_pos_as_xyz
    x,y,z
loop_
    _atom_site_label
    _atom_site_type_symbol
    _atom_site_fract_x
    _atom_site_fract_y
    _atom_site_fract_z
    _atom_site_occupancy
    Cu0     Cu   0.24806   0.00372   0.93049   1.000
    Cu1     Cu   0.24791   0.50397   0.56947   1.000
    Cu2     Cu   0.75151   0.99535   0.06951   1.000
    H3      H    0.41045   0.69648   0.42801   1.000
    H4      H    0.22069   0.82909   0.32242   1.000
    H5      H    0.73830   0.71373   0.14760   1.000
    H6      H    0.90291   0.58284   0.25931   1.000
    H7      H    0.58948   0.80340   0.92796   1.000
    H8      H    0.77894   0.67059   0.82241   1.000
    H9      H    0.26116   0.78583   0.64760   1.000
    H10     H    0.09673   0.91684   0.75925   1.000
    H11     H    0.58964   0.30327   0.57195   1.000
    H12     H    0.77955   0.17071   0.67756   1.000
    H13     H    0.26178   0.28589   0.85236   1.000
    H14     H    0.09697   0.41673   0.74065   1.000
    H15     H    0.41072   0.19686   0.07187   1.000
    H16     H    0.22092   0.32950   0.17746   1.000
    H17     H    0.73878   0.21432   0.35228   1.000
    H18     H    0.90354   0.08348   0.24057   1.000
    C19     C    0.47796   0.70308   0.36508   1.000
    C20     C    0.37348   0.77693   0.30644   1.000
    C21     C    0.46369   0.78227   0.22562   1.000
    C22     C    0.66017   0.71249   0.20883   1.000
    C23     C    0.75301   0.63991   0.27099   1.000
    C24     C    0.34436   0.85166   0.16181   1.000
    C25     C    0.52181   0.79671   0.86504   1.000
    C26     C    0.62615   0.72276   0.80643   1.000
    C27     C    0.53592   0.71740   0.72561   1.000
    C28     C    0.33936   0.78712   0.70882   1.000
    C29     C    0.24666   0.85979   0.77095   1.000
    C30     C    0.65521   0.64795   0.66183   1.000
    C31     C    0.52207   0.29660   0.63487   1.000
    Cu32    Cu   0.75156   0.49518   0.43051   1.000
    C33     C    0.62664   0.22280   0.69351   1.000
    C34     C    0.53642   0.21746   0.77432   1.000
    C35     C    0.33984   0.28714   0.79112   1.000
    C36     C    0.24691   0.35968   0.72897   1.000
    C37     C    0.65570   0.14809   0.83812   1.000
    C38     C    0.47832   0.20358   0.13478   1.000
    C39     C    0.37381   0.27740   0.19342   1.000
    C40     C    0.46403   0.28270   0.27424   1.000
    C41     C    0.66066   0.21305   0.29104   1.000
    C42     C    0.75358   0.14052   0.22890   1.000
    C43     C    0.34456   0.35195   0.33804   1.000
    N44     N    0.66434   0.63325   0.34841   1.000
    N45     N    0.43508   0.89151   0.08814   1.000
    N46     N    0.25307   0.94011   0.04752   1.000
    N47     N    0.06212   0.93049   0.09633   1.000
    N48     N    0.11624   0.87677   0.16830   1.000
    N49     N    0.33548   0.86658   0.84837   1.000
    N50     N    0.56458   0.60822   0.58811   1.000
    N51     N    0.74658   0.55959   0.54753   1.000
    N52     N    0.93745   0.56907   0.59640   1.000
    N53     N    0.88327   0.62273   0.66839   1.000
    N54     N    0.33558   0.36634   0.65155   1.000
    N55     N    0.56487   0.10827   0.91178   1.000
    N56     N    0.74679   0.05958   0.95237   1.000
    N57     N    0.93793   0.06936   0.90365   1.000
    N58     N    0.88382   0.12296   0.83164   1.000
    N59     N    0.66479   0.13382   0.15148   1.000
    N60     N    0.43503   0.39143   0.41183   1.000
    N61     N    0.25298   0.43998   0.45243   1.000
    N62     N    0.06217   0.43055   0.40353   1.000
    N63     N    0.11652   0.37716   0.33147   1.000
loop_
    _geom_bond_atom_site_label_1
    _geom_bond_atom_site_label_2
    _geom_bond_distance
    _geom_bond_site_symmetry_2
    _ccdc_geom_bond_type
    N46    N45       1.35473      .   S
    N46    N47       1.34735      .   S
    N46    Cu0       2.01266  1_564   S
    Cu2    N45       2.09172      .   S
    Cu2    N47       1.98442  1_655   S
    Cu2    N59       2.05974  1_565   S
    Cu2    N56       2.01656  1_564   S
    H15    C38       1.09075      .   S
    N45    C24       1.36003      .   S
    N47    N48       1.34068      .   S
    C38    N59       1.35545      .   S
    C38    C39       1.38570      .   S
    H5     C22       1.08734      .   S
    N59    C42       1.35312      .   S
    C24    N48       1.34806      .   S
    C24    C21       1.45819      .   S
    H16    C39       1.08872      .   S
    C39    C40       1.40676      .   S
    C22    C21       1.40283      .   S
    C22    C23       1.38919      .   S
    C21    C20       1.40686      .   S
    C42    H18       1.09067      .   S
    C42    C41       1.38901      .   S
    H6     C23       1.09067      .   S
    C23    N44       1.35303      .   S
    C40    C41       1.40283      .   S
    C40    C43       1.45788      .   S
    C41    H17       1.08734      .   S
    C20    H4        1.08873      .   S
    C20    C19       1.38586      .   S
    N63    C43       1.34796      .   S
    N63    N62       1.34069      .   S
    C43    N60       1.35985      .   S
    N44    C19       1.35541      .   S
    N44    Cu32      2.05882      .   S
    C19    H3        1.09075      .   S
    N62    Cu32      1.98413  1_455   S
    N62    N61       1.34734      .   S
    N60    Cu32      2.09186      .   S
    N60    N61       1.35456      .   S
    Cu32   N51       2.01541      .   S
    N61    Cu1       2.01438      .   S
    N51    N50       1.35463      .   S
    N51    N52       1.34739      .   S
    Cu1    N50       2.09503      .   S
    Cu1    N52       1.98508  1_455   S
    Cu1    N54       2.05594      .   S
    H11    C31       1.09073      .   S
    N50    C30       1.35989      .   S
    N52    N53       1.34079      .   S
    C31    N54       1.35541      .   S
    C31    C33       1.38577      .   S
    H9     C28       1.08734      .   S
    N54    C36       1.35307      .   S
    C30    N53       1.34806      .   S
    C30    C27       1.45826      .   S
    H12    C33       1.08875      .   S
    C33    C34       1.40674      .   S
    C28    C27       1.40284      .   S
    C28    C29       1.38919      .   S
    C27    C26       1.40679      .   S
    C36    H14       1.09065      .   S
    C36    C35       1.38906      .   S
    H10    C29       1.09065      .   S
    C29    N49       1.35313      .   S
    C34    C35       1.40278      .   S
    C34    C37       1.45790      .   S
    C35    H13       1.08735      .   S
    C26    H8        1.08876      .   S
    C26    C25       1.38588      .   S
    N58    C37       1.34809      .   S
    N58    N57       1.34067      .   S
    C37    N55       1.35980      .   S
    N49    C25       1.35545      .   S
    N49    Cu0       2.05227  1_565   S
    C25    H7        1.09076      .   S
    N57    Cu0       1.98522  1_655   S
    N57    N56       1.34745      .   S
    N55    Cu0       2.09749      .   S
    N55    N56       1.35457      .   S
