# CIF file generated by openbabel 2.4.90, see http://openbabel.sf.net
data_I
_chemical_name_common ''
_cell_length_a 5.7155
_cell_length_b 10.6165
_cell_length_c 16.195
_cell_angle_alpha 90.001
_cell_angle_beta 90.007
_cell_angle_gamma 92.9
_space_group_name_H-M_alt 'P 1'
_space_group_name_Hall 'P 1'
loop_
    _symmetry_equiv_pos_as_xyz
    x,y,z
loop_
    _atom_site_label
    _atom_site_type_symbol
    _atom_site_fract_x
    _atom_site_fract_y
    _atom_site_fract_z
    _atom_site_occupancy
    N0      N    0.45839   0.77071   0.22965   1.000
    N1      N    0.54125   0.72897   0.72965   1.000
    N2      N    0.54164   0.22899   0.77030   1.000
    N3      N    0.45869   0.27109   0.27022   1.000
    Zr4     Zr   0.24806   0.00372   0.93049   1.000
    O5      O    0.30127   0.93751   0.01991   1.000
    O6      O    0.33228   0.91789   0.87001   1.000
    Zr7     Zr   0.24791   0.50397   0.56947   1.000
    O8      O    0.33230   0.41802   0.62994   1.000
    O9      O    0.30124   0.43775   0.48003   1.000
    Zr10    Zr   0.75151   0.99535   0.06951   1.000
    O11     O    0.69845   0.06179   0.98007   1.000
    O12     O    0.66747   0.08159   0.12994   1.000
    Zr13    Zr   0.75156   0.49518   0.43051   1.000
    O14     O    0.66737   0.58132   0.37003   1.000
    O15     O    0.69836   0.56168   0.51992   1.000
    O16     O    0.67798   0.42863   0.38758   1.000
    O17     O    0.32187   0.07067   0.88759   1.000
    O18     O    0.67787   0.92864   0.11239   1.000
    O19     O    0.32163   0.57081   0.61237   1.000
loop_
    _geom_bond_atom_site_label_1
    _geom_bond_atom_site_label_2
    _geom_bond_distance
    _geom_bond_site_symmetry_2
    _ccdc_geom_bond_type
    Zr4    O5        1.64474  1_546   S
    N0     O5        3.95491      .   S
    Zr4    O6        1.43726  1_545   S
    N1     O6        3.29538      .   S
    Zr7    O8        1.43826      .   S
    N2     O8        3.29672      .   S
    Zr7    O9        1.64537      .   S
    N3     O9        3.95574      .   S
    Zr10   O11       1.64606  1_564   S
    N2     O11       3.95679      .   S
    Zr10   O12       1.43916  1_565   S
    N3     O12       3.29789      .   S
    Zr13   O14       1.43930      .   S
    N0     O14       3.29853      .   S
    Zr13   O15       1.64605      .   S
    N1     O15       3.95716      .   S
    Zr13   O16       1.06261      .   S
    N3     O16       2.78712      .   S
    N2     O17       2.79258      .   S
    Zr4    O17       1.06564      .   S
    Zr10   O18       1.06334      .   S
    N0     O18       2.78916      .   S
    Zr7    O19       1.06450      .   S
    N1     O19       2.79085      .   S
