# CIF file generated by openbabel 2.4.90, see http://openbabel.sf.net
data_I
_chemical_name_common ''
_cell_length_a 5.7155
_cell_length_b 10.6165
_cell_length_c 16.195
_cell_angle_alpha 90.001
_cell_angle_beta 90.007
_cell_angle_gamma 92.9
_space_group_name_H-M_alt 'P 1'
_space_group_name_Hall 'P 1'
loop_
    _symmetry_equiv_pos_as_xyz
    x,y,z
loop_
    _atom_site_label
    _atom_site_type_symbol
    _atom_site_fract_x
    _atom_site_fract_y
    _atom_site_fract_z
    _atom_site_occupancy
    Zr0     Zr   0.75156   0.49518   0.43051   1.000
    Zr1     Zr   0.24806   0.00372   0.93049   1.000
    Zr2     Zr   0.24791   0.50397   0.56947   1.000
    Zr3     Zr   0.75151   0.99535   0.06951   1.000
    N4      N    0.45839   0.77071   0.22965   1.000
    O5      O    0.58317   0.66746   0.30956   1.000
    O6      O    0.52584   0.85707   0.15424   1.000
    O7      O    0.35448   0.87131   0.10933   1.000
    O8      O    0.68260   0.86681   0.15629   1.000
    N9      N    0.54125   0.72897   0.72965   1.000
    O10     O    0.41651   0.83206   0.80954   1.000
    O11     O    0.47375   0.64254   0.65422   1.000
    O12     O    0.64516   0.62818   0.60933   1.000
    O13     O    0.31697   0.63275   0.65629   1.000
    N14     N    0.54164   0.22899   0.77030   1.000
    O15     O    0.41669   0.33207   0.69040   1.000
    O16     O    0.47405   0.14249   0.84571   1.000
    O17     O    0.64539   0.12823   0.89062   1.000
    O18     O    0.31732   0.13276   0.84368   1.000
    N19     N    0.45869   0.27109   0.27022   1.000
    O20     O    0.58342   0.16783   0.19036   1.000
    O21     O    0.52600   0.35720   0.34570   1.000
    O22     O    0.35457   0.37153   0.39059   1.000
    O23     O    0.68278   0.36697   0.34362   1.000
loop_
    _geom_bond_atom_site_label_1
    _geom_bond_atom_site_label_2
    _geom_bond_distance
    _geom_bond_site_symmetry_2
    _ccdc_geom_bond_type
    N4     O5        1.86107      .   S
    Zr0    O5        2.87861      .   S
    N4     O6        1.56374      .   S
    Zr3    O6        2.34739      .   S
    N4     O7        2.31404      .   S
    Zr1    O7        3.28948  1_546   S
    N4     O8        1.99075      .   S
    Zr3    O8        1.98439      .   S
    N9     O10       1.85990      .   S
    Zr1    O10       2.87452  1_545   S
    N9     O11       1.56433      .   S
    Zr2    O11       2.34970      .   S
    N9     O12       2.31494      .   S
    Zr0    O12       3.29210      .   S
    N9     O13       1.99130      .   S
    Zr2    O13       1.98667      .   S
    N14    O15       1.86027      .   S
    Zr2    O15       2.87653      .   S
    N14    O16       1.56480      .   S
    Zr1    O16       2.35200      .   S
    N14    O17       2.31459      .   S
    Zr3    O17       3.29212  1_564   S
    N14    O18       1.99196      .   S
    Zr1    O18       1.98879      .   S
    N19    O20       1.86062      .   S
    Zr3    O20       2.87833  1_565   S
    N19    O21       1.56269      .   S
    Zr0    O21       2.34585      .   S
    N19    O22       2.31421      .   S
    Zr2    O22       3.29074      .   S
    N19    O23       1.98929      .   S
    Zr0    O23       1.98314      .   S
