# CIF file generated by openbabel 2.4.90, see http://openbabel.sf.net
data_I
_chemical_name_common ''
_cell_length_a 22.207
_cell_length_b 14.008
_cell_length_c 16.175
_cell_angle_alpha 90
_cell_angle_beta 90
_cell_angle_gamma 90
_space_group_name_H-M_alt 'P 1'
_space_group_name_Hall 'P 1'
loop_
    _symmetry_equiv_pos_as_xyz
    x,y,z
loop_
    _atom_site_label
    _atom_site_type_symbol
    _atom_site_fract_x
    _atom_site_fract_y
    _atom_site_fract_z
    _atom_site_occupancy
    H0      H    0.43081   0.84723   0.66489   1.000
    H1      H    0.93114   0.84567   0.66404   1.000
    H2      H    0.37186   0.84854   0.79664   1.000
    H3      H    0.87220   0.84567   0.79580   1.000
    H4      H    0.06920   0.15278   0.66489   1.000
    H5      H    0.56889   0.15435   0.66400   1.000
    H6      H    0.12813   0.15147   0.79665   1.000
    H7      H    0.62783   0.15436   0.79577   1.000
    H8      H    0.06911   0.84742   0.33515   1.000
    H9      H    0.56886   0.84570   0.33590   1.000
    H10     H    0.12806   0.84861   0.20340   1.000
    H11     H    0.62781   0.84570   0.20422   1.000
    H12     H    0.43083   0.15263   0.33519   1.000
    H13     H    0.93114   0.15435   0.33598   1.000
    H14     H    0.37189   0.15142   0.20344   1.000
    H15     H    0.87220   0.15435   0.20421   1.000
    H16     H    0.06888   0.15445   0.33594   1.000
    H17     H    0.56918   0.15274   0.33515   1.000
    H18     H    0.12782   0.15440   0.20418   1.000
    H19     H    0.62812   0.15149   0.20340   1.000
    H20     H    0.43111   0.84559   0.33597   1.000
    H21     H    0.93085   0.84731   0.33514   1.000
    H22     H    0.37217   0.84563   0.20421   1.000
    H23     H    0.87192   0.84856   0.20338   1.000
    H24     H    0.43117   0.15426   0.66401   1.000
    H25     H    0.93088   0.15271   0.66490   1.000
    H26     H    0.37222   0.15433   0.79576   1.000
    H27     H    0.87194   0.15146   0.79665   1.000
    H28     H    0.06883   0.84574   0.66401   1.000
    H29     H    0.56919   0.84731   0.66485   1.000
    H30     H    0.12777   0.84568   0.79577   1.000
    H31     H    0.62814   0.84857   0.79660   1.000
    C32     C    0.41840   0.91465   0.69390   1.000
    C33     C    0.91859   0.91280   0.69351   1.000
    C34     C    0.38567   0.91503   0.76737   1.000
    C35     C    0.88587   0.91246   0.76691   1.000
    C36     C    0.08161   0.08536   0.69398   1.000
    C37     C    0.58144   0.08722   0.69349   1.000
    C38     C    0.11432   0.08498   0.76738   1.000
    C39     C    0.61417   0.08757   0.76688   1.000
    C40     C    0.08155   0.91481   0.30604   1.000
    C41     C    0.58142   0.91283   0.30651   1.000
    C42     C    0.11427   0.91513   0.23265   1.000
    C43     C    0.61414   0.91249   0.23311   1.000
    C44     C    0.41841   0.08523   0.30607   1.000
    C45     C    0.91858   0.08722   0.30651   1.000
    C46     C    0.38569   0.08490   0.23268   1.000
    C47     C    0.88586   0.08756   0.23311   1.000
    C48     C    0.08142   0.08731   0.30648   1.000
    C49     C    0.58159   0.08533   0.30605   1.000
    C50     C    0.11414   0.08762   0.23308   1.000
    C51     C    0.61432   0.08498   0.23266   1.000
    C52     C    0.41856   0.91273   0.30651   1.000
    C53     C    0.91842   0.91472   0.30604   1.000
    C54     C    0.38584   0.91241   0.23311   1.000
    C55     C    0.88570   0.91507   0.23265   1.000
    C56     C    0.41860   0.08714   0.69349   1.000
    C57     C    0.91844   0.08530   0.69399   1.000
    C58     C    0.38588   0.08753   0.76689   1.000
    C59     C    0.88573   0.08495   0.76738   1.000
    C60     C    0.08140   0.91286   0.69349   1.000
    C61     C    0.58161   0.91472   0.69395   1.000
    C62     C    0.11412   0.91248   0.76689   1.000
    C63     C    0.61433   0.91507   0.76734   1.000
    C64     C    0.43479   0.00069   0.65597   1.000
    C65     C    0.93480   0.99921   0.65598   1.000
    C66     C    0.36882   0.00146   0.80429   1.000
    C67     C    0.86883   0.99852   0.80430   1.000
    C68     C    0.06523   0.99929   0.65596   1.000
    C69     C    0.56524   0.00078   0.65596   1.000
    C70     C    0.13118   0.99853   0.80430   1.000
    C71     C    0.63121   0.00148   0.80427   1.000
    C72     C    0.06521   0.00088   0.34404   1.000
    C73     C    0.56522   0.99925   0.34404   1.000
    C74     C    0.13117   0.00152   0.19571   1.000
    C75     C    0.63120   0.99854   0.19573   1.000
    C76     C    0.43477   0.99914   0.34406   1.000
    C77     C    0.93478   0.00078   0.34405   1.000
    C78     C    0.36881   0.99848   0.19573   1.000
    C79     C    0.86881   0.00148   0.19573   1.000
loop_
    _geom_bond_atom_site_label_1
    _geom_bond_atom_site_label_2
    _geom_bond_distance
    _geom_bond_site_symmetry_2
    _ccdc_geom_bond_type
    C74    C42       1.40082  1_545   S
    C74    C50       1.40107      .   S
    C79    C55       1.40085  1_545   S
    C79    C47       1.40109      .   S
    C78    C46       1.40117  1_565   S
    C78    C54       1.40079      .   S
    C75    C51       1.40122  1_565   S
    C75    C43       1.40081      .   S
    H23    C55       1.08900      .   S
    H10    C42       1.08897      .   S
    H19    C51       1.08900      .   S
    H14    C46       1.08894      .   S
    H18    C50       1.08894      .   S
    H22    C54       1.08895      .   S
    H15    C47       1.08900      .   S
    H11    C43       1.08896      .   S
    C55    C53       1.39177      .   S
    C42    C40       1.39179      .   S
    C51    C49       1.39185      .   S
    C46    C44       1.39183      .   S
    C50    C48       1.39193      .   S
    C43    C41       1.39201      .   S
    C54    C52       1.39197      .   S
    C47    C45       1.39193      .   S
    C53    H21       1.09055      .   S
    C53    C77       1.40118  1_565   S
    C40    H8        1.09054      .   S
    C40    C72       1.40117  1_565   S
    C49    H17       1.09050      .   S
    C49    C73       1.40142  1_545   S
    C44    H12       1.09057      .   S
    C44    C76       1.40148  1_545   S
    C48    H16       1.09058      .   S
    C48    C72       1.40152      .   S
    C52    H20       1.09054      .   S
    C52    C76       1.40117      .   S
    C45    H13       1.09055      .   S
    C45    C77       1.40149      .   S
    C41    H9        1.08998      .   S
    C41    C73       1.40109      .   S
    C68    C60       1.40117      .   S
    C68    C36       1.40146  1_565   S
    C69    C37       1.40147      .   S
    C69    C61       1.40108  1_545   S
    C64    C56       1.40148      .   S
    C64    C32       1.40055  1_545   S
    C65    C33       1.40114      .   S
    C65    C57       1.40145  1_565   S
    H5     C37       1.09065      .   S
    H24    C56       1.09053      .   S
    H28    C60       1.09054      .   S
    H1     C33       1.09054      .   S
    H29    C61       1.09052      .   S
    H0     C32       1.08998      .   S
    H4     C36       1.09053      .   S
    H25    C57       1.09053      .   S
    C37    C39       1.39183      .   S
    C56    C58       1.39204      .   S
    C60    C62       1.39195      .   S
    C33    C35       1.39192      .   S
    C32    C34       1.39297      .   S
    C61    C63       1.39184      .   S
    C36    C38       1.39190      .   S
    C57    C59       1.39179      .   S
    C39    H7        1.08898      .   S
    C39    C71       1.40111      .   S
    C58    H26       1.08894      .   S
    C58    C66       1.40108      .   S
    C62    H30       1.08896      .   S
    C62    C70       1.40084      .   S
    C35    H3        1.08898      .   S
    C35    C67       1.40078      .   S
    C63    H31       1.08899      .   S
    C63    C71       1.40087  1_565   S
    C34    H2        1.08899      .   S
    C34    C66       1.40087  1_565   S
    C59    H27       1.08899      .   S
    C59    C67       1.40116  1_545   S
    C38    H6        1.08894      .   S
    C38    C70       1.40119  1_545   S
