# CIF file generated by openbabel 2.4.90, see http://openbabel.sf.net
data_I
_chemical_name_common ''
_cell_length_a 22.207
_cell_length_b 14.008
_cell_length_c 16.175
_cell_angle_alpha 90
_cell_angle_beta 90
_cell_angle_gamma 90
_space_group_name_H-M_alt 'P 1'
_space_group_name_Hall 'P 1'
loop_
    _symmetry_equiv_pos_as_xyz
    x,y,z
loop_
    _atom_site_label
    _atom_site_type_symbol
    _atom_site_fract_x
    _atom_site_fract_y
    _atom_site_fract_z
    _atom_site_occupancy
    H0      H    0.34300   0.74779   0.00072   1.000
    H1      H    0.84305   0.74788   0.99917   1.000
    H2      H    0.34757   0.57101   0.00059   1.000
    H3      H    0.84765   0.57109   0.99925   1.000
    H4      H    0.15695   0.25213   0.00069   1.000
    H5      H    0.65700   0.25222   0.99914   1.000
    H6      H    0.15235   0.42892   0.00058   1.000
    H7      H    0.65244   0.42900   0.99923   1.000
    H8      H    0.15695   0.74784   0.99932   1.000
    H9      H    0.65700   0.74782   0.00084   1.000
    H10     H    0.15235   0.57105   0.99940   1.000
    H11     H    0.65244   0.57104   0.00075   1.000
    H12     H    0.34300   0.25218   0.99920   1.000
    H13     H    0.84305   0.25216   0.00084   1.000
    H14     H    0.34756   0.42896   0.99940   1.000
    H15     H    0.84765   0.42895   0.00075   1.000
    C16     C    0.43787   0.99985   0.50002   1.000
    C17     C    0.93787   0.99997   0.50001   1.000
    C18     C    0.06213   0.00015   0.50000   1.000
    C19     C    0.56214   0.00005   0.50000   1.000
    C20     C    0.24996   0.55298   0.00000   1.000
    C21     C    0.75005   0.55302   0.00000   1.000
    C22     C    0.24996   0.44699   0.99999   1.000
    C23     C    0.75005   0.44702   0.99999   1.000
    C24     C    0.46823   0.00030   0.57610   1.000
    C25     C    0.96823   0.99961   0.57610   1.000
    C26     C    0.03179   0.99969   0.57610   1.000
    C27     C    0.53179   0.00038   0.57610   1.000
    C28     C    0.03178   0.00050   0.42391   1.000
    C29     C    0.53178   0.99961   0.42391   1.000
    C30     C    0.46822   0.99952   0.42392   1.000
    C31     C    0.96822   0.00041   0.42392   1.000
    C32     C    0.30206   0.70487   0.00030   1.000
    C33     C    0.80211   0.70492   0.99958   1.000
    C34     C    0.30379   0.60579   0.00032   1.000
    C35     C    0.80387   0.60585   0.99960   1.000
    C36     C    0.19789   0.29508   0.00034   1.000
    C37     C    0.69795   0.29514   0.99956   1.000
    C38     C    0.19614   0.39416   0.00030   1.000
    C39     C    0.69622   0.39422   0.99950   1.000
    C40     C    0.19789   0.70489   0.99965   1.000
    C41     C    0.69795   0.70490   0.00042   1.000
    C42     C    0.19614   0.60581   0.99968   1.000
    C43     C    0.69622   0.60582   0.00040   1.000
    C44     C    0.30206   0.29511   0.99966   1.000
    C45     C    0.80212   0.29512   0.00000   1.000
    C46     C    0.30379   0.39418   0.99967   1.000
    C47     C    0.80387   0.39419   0.00040   1.000
    Br48    Br   0.35123   0.99970   0.50003   1.000
    Br49    Br   0.85123   0.99984   0.50002   1.000
    Br50    Br   0.14878   0.00030   0.49999   1.000
    Br51    Br   0.64878   0.00018   0.49999   1.000
    N52     N    0.24998   0.75396   0.00000   1.000
    N53     N    0.75003   0.75399   0.00000   1.000
    N54     N    0.24998   0.24601   0.99999   1.000
    N55     N    0.75003   0.24605   0.99999   1.000
loop_
    _geom_bond_atom_site_label_1
    _geom_bond_atom_site_label_2
    _geom_bond_distance
    _geom_bond_site_symmetry_2
    _ccdc_geom_bond_type
    C45    C47       1.38835      .   S
    C45    H13       1.09023      .   S
    C45    N55       1.34560  1_554   S
    C20    C34       1.40575      .   S
    C20    C42       1.40573  1_554   S
    C20    C22       1.48483  1_554   S
    C38    C36       1.38842      .   S
    C38    H6        1.08747      .   S
    C38    C22       1.40574  1_554   S
    C32    C34       1.38837      .   S
    C32    H0        1.09016      .   S
    C32    N52       1.34554      .   S
    C34    H2        1.08745      .   S
    C36    H4        1.09018      .   S
    C36    N54       1.34553  1_554   S
    C43    C41       1.38839      .   S
    C43    H11       1.08745      .   S
    C43    C21       1.40573      .   S
    C47    H15       1.08745      .   S
    C47    C23       1.40575  1_554   S
    C41    H9        1.09016      .   S
    C41    N53       1.34552      .   S
    C28    C31       1.41152  1_455   S
    C28    C18       1.40327      .   S
    C29    C30       1.41159      .   S
    C29    C19       1.40329  1_565   S
    C30    C16       1.40331      .   S
    C31    C17       1.40320  1_545   S
    Br51   C19       1.92413      .   S
    Br50   C18       1.92410      .   S
    C19    C27       1.40331      .   S
    C18    C26       1.40334  1_545   S
    C17    Br49      1.92410      .   S
    C17    C25       1.40327      .   S
    C16    Br48      1.92410      .   S
    C16    C24       1.40315  1_565   S
    C26    C25       1.41152  1_455   S
    C24    C27       1.41159      .   S
    H5     C37       1.09017      .   S
    H1     C33       1.09015      .   S
    H12    C44       1.09018      .   S
    H7     C39       1.08744      .   S
    H3     C35       1.08747      .   S
    H8     C40       1.09018      .   S
    H14    C46       1.08744      .   S
    H10    C42       1.08747      .   S
    C39    C37       1.38837      .   S
    C39    C23       1.40575      .   S
    C37    N55       1.34552      .   S
    C33    C35       1.38842      .   S
    C33    N53       1.34554  1_556   S
    C35    C21       1.40575  1_556   S
    C40    C42       1.38841      .   S
    C40    N52       1.34554  1_556   S
    C44    C46       1.38829      .   S
    C44    N54       1.34561      .   S
    C46    C22       1.40573      .   S
    C23    C21       1.48483  1_556   S
