# CIF file generated by openbabel 2.4.90, see http://openbabel.sf.net
data_I
_chemical_name_common ''
_cell_length_a 22.207
_cell_length_b 14.008
_cell_length_c 16.175
_cell_angle_alpha 90
_cell_angle_beta 90
_cell_angle_gamma 90
_space_group_name_H-M_alt 'P 1'
_space_group_name_Hall 'P 1'
loop_
    _symmetry_equiv_pos_as_xyz
    x,y,z
loop_
    _atom_site_label
    _atom_site_type_symbol
    _atom_site_fract_x
    _atom_site_fract_y
    _atom_site_fract_z
    _atom_site_occupancy
    Mc0     Mc   0.09816   0.00122   0.26967   1.000
    Mc1     Mc   0.90183   0.00114   0.26968   1.000
    Mc2     Mc   0.09818   0.99892   0.73033   1.000
    Mc3     Mc   0.90184   0.99888   0.73035   1.000
    Mc4     Mc   0.40181   0.99882   0.26970   1.000
    Mc5     Mc   0.59818   0.99891   0.26968   1.000
    Mc6     Mc   0.59821   0.00114   0.73031   1.000
    Mc7     Mc   0.40182   0.00109   0.73032   1.000
