# CIF file generated by openbabel 2.4.90, see http://openbabel.sf.net
data_I
_chemical_name_common ''
_cell_length_a 22.207
_cell_length_b 14.008
_cell_length_c 16.175
_cell_angle_alpha 90
_cell_angle_beta 90
_cell_angle_gamma 90
_space_group_name_H-M_alt 'P 1'
_space_group_name_Hall 'P 1'
loop_
    _symmetry_equiv_pos_as_xyz
    x,y,z
loop_
    _atom_site_label
    _atom_site_type_symbol
    _atom_site_fract_x
    _atom_site_fract_y
    _atom_site_fract_z
    _atom_site_occupancy
    Zr0     Zr   0.24999   0.90157   0.00000   1.000
    Zr1     Zr   0.75000   0.90162   0.99999   1.000
    Zr2     Zr   0.25000   0.09837   0.99999   1.000
    Zr3     Zr   0.75001   0.09843   0.99999   1.000
    Zr4     Zr   0.33041   0.00181   0.88057   1.000
    Zr5     Zr   0.83043   0.99819   0.88058   1.000
    Zr6     Zr   0.16959   0.99818   0.88050   1.000
    Zr7     Zr   0.66960   0.00182   0.88057   1.000
    Zr8     Zr   0.16958   0.00182   0.11944   1.000
    Zr9     Zr   0.66959   0.99820   0.11944   1.000
    Zr10    Zr   0.33041   0.99817   0.11945   1.000
    Zr11    Zr   0.83043   0.00181   0.11943   1.000
    Zr12    Zr   0.31487   0.92091   0.90969   1.000
    Zr13    Zr   0.81504   0.91709   0.90947   1.000
    Zr14    Zr   0.18512   0.07911   0.90969   1.000
    Zr15    Zr   0.68497   0.08295   0.90946   1.000
    Zr16    Zr   0.18511   0.92091   0.09034   1.000
    Zr17    Zr   0.68496   0.91710   0.09055   1.000
    Zr18    Zr   0.31488   0.07911   0.09034   1.000
    Zr19    Zr   0.81504   0.08294   0.09055   1.000
    Zr20    Zr   0.18496   0.08294   0.09054   1.000
    Zr21    Zr   0.68513   0.07913   0.09033   1.000
    Zr22    Zr   0.31503   0.91707   0.09054   1.000
    Zr23    Zr   0.81488   0.92090   0.09033   1.000
    Zr24    Zr   0.31504   0.08294   0.90946   1.000
    Zr25    Zr   0.81489   0.07913   0.90968   1.000
    Zr26    Zr   0.18496   0.91708   0.90947   1.000
    Zr27    Zr   0.68513   0.92091   0.90968   1.000
    O28     O    0.67736   0.03867   0.10488   1.000
    O29     O    0.71757   0.08878   0.04516   1.000
    O30     O    0.82265   0.96136   0.10488   1.000
    O31     O    0.78244   0.91126   0.04516   1.000
    O32     O    0.32265   0.03864   0.10489   1.000
    O33     O    0.28244   0.08874   0.04516   1.000
    O34     O    0.17735   0.96137   0.10489   1.000
    O35     O    0.21755   0.91124   0.04517   1.000
    O36     O    0.17727   0.04238   0.10499   1.000
    O37     O    0.21748   0.09066   0.04526   1.000
    O38     O    0.32272   0.95762   0.10499   1.000
    O39     O    0.28251   0.90932   0.04527   1.000
    O40     O    0.82273   0.04237   0.10499   1.000
    O41     O    0.78252   0.09068   0.04527   1.000
    O42     O    0.67727   0.95765   0.10499   1.000
    O43     O    0.71748   0.90936   0.04527   1.000
    O44     O    0.17727   0.95763   0.89498   1.000
    O45     O    0.17736   0.03864   0.89509   1.000
    O46     O    0.32273   0.04237   0.89501   1.000
    O47     O    0.32264   0.96136   0.89513   1.000
    O48     O    0.67728   0.04238   0.89501   1.000
    O49     O    0.67736   0.96137   0.89512   1.000
    O50     O    0.82273   0.95764   0.89502   1.000
    O51     O    0.82266   0.03866   0.89513   1.000
    O52     O    0.71749   0.09069   0.95472   1.000
    O53     O    0.28252   0.09066   0.95472   1.000
    O54     O    0.21747   0.90932   0.95473   1.000
    O55     O    0.78252   0.90936   0.95473   1.000
    O56     O    0.71756   0.91127   0.95483   1.000
    O57     O    0.78245   0.08878   0.95483   1.000
    O58     O    0.21756   0.08874   0.95484   1.000
    O59     O    0.28243   0.91124   0.95484   1.000
    O60     O    0.25000   0.99997   1.00000   1.000
    O61     O    0.75000   0.00002   0.99999   1.000
    N62     N    0.00000   0.00006   0.50001   1.000
    O63     O    0.12427   0.00144   0.21362   1.000
    O64     O    0.87572   0.00139   0.21363   1.000
    O65     O    0.12428   0.99864   0.78637   1.000
    O66     O    0.87574   0.99862   0.78639   1.000
    N67     N    0.75004   0.50002   0.99997   1.000
    O68     O    0.75003   0.33613   0.99998   1.000
    O69     O    0.75003   0.66391   0.99998   1.000
    N70     N    0.50001   0.99995   0.50001   1.000
    O71     O    0.37571   0.99857   0.21364   1.000
    O72     O    0.62429   0.99864   0.21363   1.000
    O73     O    0.62431   0.00140   0.78637   1.000
    O74     O    0.37572   0.00136   0.78638   1.000
    N75     N    0.24997   0.49999   0.99999   1.000
    O76     O    0.24998   0.33609   0.99999   1.000
    O77     O    0.24998   0.66387   1.00000   1.000
loop_
    _geom_bond_atom_site_label_1
    _geom_bond_atom_site_label_2
    _geom_bond_distance
    _geom_bond_site_symmetry_2
    _ccdc_geom_bond_type
    Zr21   O28       0.63759      .   S
    Zr9    O28       0.63759  1_565   S
    Zr21   O29       1.03489      .   S
    Zr3    O29       1.03489  1_556   S
    Zr23   O30       0.63741      .   S
    Zr11   O30       0.63741  1_545   S
    Zr23   O31       1.03490      .   S
    Zr1    O31       1.03490  1_556   S
    Zr18   O32       0.63759      .   S
    Zr10   O32       0.63759  1_565   S
    Zr18   O33       1.03493      .   S
    Zr2    O33       1.03493  1_556   S
    Zr16   O34       0.63740      .   S
    Zr8    O34       0.63740  1_545   S
    Zr16   O35       1.03496      .   S
    Zr0    O35       1.03496      .   S
    Zr20   O36       0.63766      .   S
    Zr8    O36       0.63766      .   S
    Zr20   O37       1.03417      .   S
    Zr2    O37       1.03417  1_556   S
    Zr22   O38       0.63753      .   S
    Zr10   O38       0.63753      .   S
    Zr22   O39       1.03416      .   S
    Zr0    O39       1.03416      .   S
    Zr19   O40       0.63766      .   S
    Zr11   O40       0.63766      .   S
    Zr19   O41       1.03424      .   S
    Zr3    O41       1.03424  1_556   S
    Zr17   O42       0.63752      .   S
    Zr9    O42       0.63752      .   S
    Zr17   O43       1.03424      .   S
    Zr1    O43       1.03424  1_556   S
    Zr6    O44       0.63773      .   S
    Zr26   O44       0.63773      .   S
    Zr6    O45       0.63782  1_565   S
    Zr14   O45       0.63782      .   S
    Zr4    O46       0.63768      .   S
    Zr24   O46       0.63768      .   S
    Zr4    O47       0.63743  1_545   S
    Zr12   O47       0.63743      .   S
    Zr7    O48       0.63765      .   S
    Zr15   O48       0.63765      .   S
    Zr7    O49       0.63740  1_545   S
    Zr27   O49       0.63740      .   S
    Zr5    O50       0.63752      .   S
    Zr13   O50       0.63752      .   S
    Zr5    O51       0.63757  1_565   S
    Zr25   O51       0.63757      .   S
    Zr15   O52       1.03405      .   S
    Zr3    O52       1.03405      .   S
    Zr24   O53       1.03405      .   S
    Zr2    O53       1.03405      .   S
    Zr26   O54       1.03409      .   S
    Zr0    O54       1.03409  1_554   S
    Zr13   O55       1.03404      .   S
    Zr1    O55       1.03404      .   S
    Zr27   O56       1.03469      .   S
    Zr1    O56       1.03469      .   S
    Zr25   O57       1.03476      .   S
    Zr3    O57       1.03476      .   S
    Zr14   O58       1.03465      .   S
    Zr2    O58       1.03465      .   S
    Zr12   O59       1.03478      .   S
    Zr0    O59       1.03478  1_554   S
    Zr0    O60       1.37842  1_554   S
    Zr2    O60       1.37842  1_545   S
    Zr1    O61       1.37845  1_565   S
    Zr3    O61       1.37845      .   S
    N62    O63       5.39200      .   S
    Zr8    O63       1.82574      .   S
    N62    O64       5.39203  1_455   S
    Zr11   O64       1.82579      .   S
    N62    O65       5.39178  1_545   S
    Zr6    O65       1.82500      .   S
    N62    O66       5.39203  1_445   S
    Zr5    O66       1.82576      .   S
    N67    O68       2.29578      .   S
    Zr3    O68       3.32972      .   S
    N67    O69       2.29580      .   S
    Zr1    O69       3.32980      .   S
    N70    O71       5.39208      .   S
    Zr10   O71       1.82572      .   S
    N70    O72       5.39208      .   S
    Zr9    O72       1.82567      .   S
    N70    O73       5.39199  1_565   S
    Zr7    O73       1.82580      .   S
    N70    O74       5.39198  1_565   S
    Zr4    O74       1.82580      .   S
    N75    O76       2.29586      .   S
    Zr2    O76       3.32993      .   S
    N75    O77       2.29575      .   S
    Zr0    O77       3.32963  1_554   S
