# CIF file generated by openbabel 2.4.90, see http://openbabel.sf.net
data_I
_chemical_name_common ''
_cell_length_a 22.207
_cell_length_b 14.008
_cell_length_c 16.175
_cell_angle_alpha 90
_cell_angle_beta 90
_cell_angle_gamma 90
_space_group_name_H-M_alt 'P 1'
_space_group_name_Hall 'P 1'
loop_
    _symmetry_equiv_pos_as_xyz
    x,y,z
loop_
    _atom_site_label
    _atom_site_type_symbol
    _atom_site_fract_x
    _atom_site_fract_y
    _atom_site_fract_z
    _atom_site_occupancy
    N0      N    0.00000   0.00006   0.50001   1.000
    N1      N    0.75004   0.50002   0.99997   1.000
    N2      N    0.50001   0.99995   0.50001   1.000
    N3      N    0.24997   0.49999   0.99999   1.000
    Zr4     Zr   0.25000   1.00000   0.00000   1.000
    O5      O    0.31286   0.00068   0.89319   1.000
    O6      O    0.18714   0.99932   0.89318   1.000
    O7      O    0.24999   0.83194   1.00000   1.000
    O8      O    0.24999   0.16804   1.00000   1.000
    O9      O    0.31285   0.99928   0.10682   1.000
    O10     O    0.18713   0.00072   0.10681   1.000
    Zr11    Zr   0.75001   0.00002   0.00000   1.000
    O12     O    0.75002   0.83196   0.99999   1.000
    O13     O    0.68715   0.99933   0.10682   1.000
    O14     O    0.68716   0.00071   0.89318   1.000
    O15     O    0.75002   0.16807   0.99999   1.000
    O16     O    0.81287   0.99932   0.89320   1.000
    O17     O    0.81286   0.00070   0.10682   1.000
loop_
    _geom_bond_atom_site_label_1
    _geom_bond_atom_site_label_2
    _geom_bond_distance
    _geom_bond_site_symmetry_2
    _ccdc_geom_bond_type
    Zr4    O5        2.22119  1_564   S
    N2     O5        7.59723  1_565   S
    Zr4    O6        2.22123  1_554   S
    N0     O6        7.59706  1_545   S
    Zr4    O7        2.35422  1_554   S
    N3     O7        4.64996      .   S
    Zr4    O8        2.35398  1_564   S
    N3     O8        4.64984      .   S
    Zr4    O9        2.22122      .   S
    N2     O9        7.59738      .   S
    Zr4    O10       2.22121  1_565   S
    N0     O10       7.59723      .   S
    Zr11   O12       2.35407  1_544   S
    N1     O12       4.64987      .   S
    Zr11   O13       2.22117  1_545   S
    N2     O13       7.59731      .   S
    Zr11   O14       2.22113  1_554   S
    N2     O14       7.59720  1_565   S
    Zr11   O15       2.35414  1_554   S
    N1     O15       4.64992      .   S
    Zr11   O16       2.22117  1_544   S
    N0     O16       7.59721  1_445   S
    Zr11   O17       2.22117      .   S
    N0     O17       7.59725  1_455   S
