# CIF file generated by openbabel 2.4.90, see http://openbabel.sf.net
data_I
_chemical_name_common ''
_cell_length_a 13.701
_cell_length_b 13.846
_cell_length_c 14.057
_cell_angle_alpha 108.95
_cell_angle_beta 90.087
_cell_angle_gamma 89.967
_space_group_name_H-M_alt 'P 1'
_space_group_name_Hall 'P 1'
loop_
    _symmetry_equiv_pos_as_xyz
    x,y,z
loop_
    _atom_site_label
    _atom_site_type_symbol
    _atom_site_fract_x
    _atom_site_fract_y
    _atom_site_fract_z
    _atom_site_occupancy
    Mc0     Mc   0.17196   0.90023   0.65650   1.000
    Mc1     Mc   0.82843   0.10320   0.34439   1.000
    Mc2     Mc   0.32905   0.90095   0.15605   1.000
    Mc3     Mc   0.67058   0.10222   0.84512   1.000
