# CIF file generated by openbabel 2.4.90, see http://openbabel.sf.net
data_I
_chemical_name_common ''
_cell_length_a 13.701
_cell_length_b 13.846
_cell_length_c 14.057
_cell_angle_alpha 108.95
_cell_angle_beta 90.087
_cell_angle_gamma 89.967
_space_group_name_H-M_alt 'P 1'
_space_group_name_Hall 'P 1'
loop_
    _symmetry_equiv_pos_as_xyz
    x,y,z
loop_
    _atom_site_label
    _atom_site_type_symbol
    _atom_site_fract_x
    _atom_site_fract_y
    _atom_site_fract_z
    _atom_site_occupancy
    Lv0     Lv   0.20560   0.32249   0.73481   1.000
    Lv1     Lv   0.79430   0.68085   0.26574   1.000
    Lv2     Lv   0.29446   0.32334   0.23510   1.000
    Lv3     Lv   0.70586   0.67973   0.76536   1.000
