# CIF file generated by openbabel 2.4.90, see http://openbabel.sf.net
data_I
_chemical_name_common ''
_cell_length_a 13.701
_cell_length_b 13.846
_cell_length_c 14.057
_cell_angle_alpha 108.95
_cell_angle_beta 90.087
_cell_angle_gamma 89.967
_space_group_name_H-M_alt 'P 1'
_space_group_name_Hall 'P 1'
loop_
    _symmetry_equiv_pos_as_xyz
    x,y,z
loop_
    _atom_site_label
    _atom_site_type_symbol
    _atom_site_fract_x
    _atom_site_fract_y
    _atom_site_fract_z
    _atom_site_occupancy
    H0      H    0.24178   0.68673   0.05042   1.000
    H1      H    0.16873   0.86337   0.11701   1.000
    H2      H    0.45705   0.97426   0.22464   1.000
    H3      H    0.51555   0.79481   0.15892   1.000
    H4      H    0.38821   0.08691   0.15875   1.000
    H5      H    0.74164   0.31765   0.44990   1.000
    H6      H    0.66839   0.14100   0.38450   1.000
    H7      H    0.95593   0.02952   0.27533   1.000
    H8      H    0.01468   0.20903   0.33995   1.000
    H9      H    0.88769   0.91745   0.34261   1.000
    H10     H    0.75802   0.31655   0.95012   1.000
    H11     H    0.83087   0.13973   0.88430   1.000
    H12     H    0.54241   0.02887   0.77714   1.000
    H13     H    0.48410   0.20841   0.84222   1.000
    H14     H    0.61124   0.91583   0.84198   1.000
    H15     H    0.25879   0.68586   0.55068   1.000
    H16     H    0.33206   0.86247   0.61641   1.000
    H17     H    0.04462   0.97375   0.72615   1.000
    H18     H    0.98584   0.79426   0.66110   1.000
    H19     H    0.11230   0.08582   0.65852   1.000
    C20     C    0.28576   0.75322   0.09025   1.000
    C21     C    0.24613   0.85073   0.12614   1.000
    C22     C    0.30726   0.93360   0.17306   1.000
    C23     C    0.40596   0.91401   0.18558   1.000
    C24     C    0.43983   0.81398   0.14951   1.000
    C25     C    0.26365   0.03920   0.20866   1.000
    C26     C    0.78536   0.25104   0.40995   1.000
    C27     C    0.74566   0.15353   0.37477   1.000
    C28     C    0.80657   0.07057   0.32769   1.000
    C29     C    0.90511   0.08995   0.31446   1.000
    C30     C    0.93905   0.18997   0.34985   1.000
    C31     C    0.76298   0.96501   0.29240   1.000
    C32     C    0.71399   0.25001   0.91058   1.000
    C33     C    0.75349   0.15242   0.87510   1.000
    C34     C    0.69228   0.06957   0.82843   1.000
    C35     C    0.59357   0.08914   0.81596   1.000
    C36     C    0.55982   0.18923   0.85160   1.000
    C37     C    0.73595   0.96404   0.79276   1.000
    C38     C    0.21508   0.75242   0.59080   1.000
    C39     C    0.25480   0.84993   0.62619   1.000
    C40     C    0.19389   0.93286   0.67340   1.000
    C41     C    0.09541   0.91338   0.68600   1.000
    C42     C    0.06145   0.81338   0.65117   1.000
    C43     C    0.23730   0.03852   0.70840   1.000
    N44     N    0.38119   0.73501   0.10143   1.000
    N45     N    0.32561   0.11301   0.19768   1.000
    N46     N    0.88063   0.26905   0.39801   1.000
    N47     N    0.82501   0.89129   0.30370   1.000
    N48     N    0.61860   0.26823   0.89920   1.000
    N49     N    0.67401   0.89000   0.80326   1.000
    N50     N    0.11981   0.73436   0.60268   1.000
    N51     N    0.17500   0.11211   0.69735   1.000
    O52     O    0.17994   0.05442   0.24261   1.000
    O53     O    0.67924   0.94969   0.25834   1.000
    O54     O    0.81975   0.94905   0.75899   1.000
    O55     O    0.32113   0.05413   0.74220   1.000
loop_
    _geom_bond_atom_site_label_1
    _geom_bond_atom_site_label_2
    _geom_bond_distance
    _geom_bond_site_symmetry_2
    _ccdc_geom_bond_type
    H0     C20       1.09031      .   S
    C20    N44       1.35007      .   S
    C20    C21       1.38921      .   S
    N44    C24       1.34815      .   S
    H1     C21       1.08893      .   S
    C21    C22       1.40028      .   S
    C24    H3        1.08917      .   S
    C24    C23       1.39090      .   S
    H4     N45       1.01898      .   S
    C22    C23       1.40115      .   S
    C22    C25       1.50658  1_565   S
    C23    H2        1.09053      .   S
    N45    C25       1.37571      .   S
    C25    O52       1.23444      .   S
    O53    C31       1.23414      .   S
    H7     C29       1.09049      .   S
    C31    N47       1.37594      .   S
    C31    C28       1.50612  1_565   S
    N47    H9        1.01897      .   S
    C29    C28       1.40107      .   S
    C29    C30       1.39078      .   S
    C28    C27       1.40022      .   S
    H8     C30       1.08960  1_455   S
    C30    N46       1.34794      .   S
    C27    H6        1.08887      .   S
    C27    C26       1.38911      .   S
    N46    C26       1.34994      .   S
    C26    H5        1.09034      .   S
    H15    C38       1.09037      .   S
    C38    N50       1.35004      .   S
    C38    C39       1.38929      .   S
    N50    C42       1.34802      .   S
    H16    C39       1.08895      .   S
    C39    C40       1.40028      .   S
    C42    H18       1.08961  1_455   S
    C42    C41       1.39038      .   S
    H19    N51       1.01896      .   S
    C40    C41       1.39892      .   S
    C40    C43       1.50628  1_565   S
    C41    H17       1.09342      .   S
    N51    C43       1.37554      .   S
    C43    O55       1.23433      .   S
    O54    C37       1.23450      .   S
    H12    C35       1.09052      .   S
    C37    N49       1.37565      .   S
    C37    C34       1.50613  1_565   S
    N49    H14       1.01894      .   S
    C35    C34       1.40112      .   S
    C35    C36       1.39084      .   S
    C34    C33       1.40013      .   S
    H13    C36       1.08904      .   S
    C36    N48       1.34791      .   S
    C33    H11       1.08897      .   S
    C33    C32       1.38907      .   S
    N48    C32       1.35002      .   S
    C32    H10       1.09031      .   S
