# CIF file generated by openbabel 2.4.90, see http://openbabel.sf.net
data_I
_chemical_name_common ''
_cell_length_a 13.701
_cell_length_b 13.846
_cell_length_c 14.057
_cell_angle_alpha 108.95
_cell_angle_beta 90.087
_cell_angle_gamma 89.967
_space_group_name_H-M_alt 'P 1'
_space_group_name_Hall 'P 1'
loop_
    _symmetry_equiv_pos_as_xyz
    x,y,z
loop_
    _atom_site_label
    _atom_site_type_symbol
    _atom_site_fract_x
    _atom_site_fract_y
    _atom_site_fract_z
    _atom_site_occupancy
    H0      H    0.42131   0.22985   0.11397   1.000
    H1      H    0.27245   0.50962   0.26790   1.000
    H2      H    0.18906   0.23202   0.32236   1.000
    H3      H    0.92130   0.77424   0.38711   1.000
    H4      H    0.77257   0.49451   0.23253   1.000
    H5      H    0.68850   0.77236   0.17873   1.000
    H6      H    0.57858   0.77239   0.88640   1.000
    H7      H    0.72875   0.49353   0.73230   1.000
    H8      H    0.81082   0.77179   0.67840   1.000
    H9      H    0.07895   0.22866   0.61323   1.000
    H10     H    0.22708   0.50881   0.76772   1.000
    H11     H    0.31131   0.23140   0.82230   1.000
    C12     C    0.30752   0.21836   0.21751   1.000
    C13     C    0.36565   0.26987   0.16777   1.000
    C14     C    0.35232   0.37416   0.18459   1.000
    C15     C    0.28229   0.42820   0.25398   1.000
    C16     C    0.22404   0.37651   0.30327   1.000
    C17     C    0.23552   0.27146   0.28455   1.000
    C18     C    0.80716   0.78588   0.28362   1.000
    C19     C    0.86557   0.73428   0.33321   1.000
    C20     C    0.85241   0.62994   0.31606   1.000
    C21     C    0.78230   0.57595   0.24659   1.000
    C22     C    0.72383   0.62770   0.19739   1.000
    C23     C    0.73511   0.73281   0.21642   1.000
    C24     C    0.69239   0.78468   0.78319   1.000
    C25     C    0.63446   0.73276   0.83268   1.000
    C26     C    0.64831   0.62852   0.81569   1.000
    C27     C    0.71851   0.57491   0.74632   1.000
    C28     C    0.77641   0.62699   0.69715   1.000
    C29     C    0.76454   0.73202   0.71610   1.000
    C30     C    0.19282   0.21750   0.71710   1.000
    C31     C    0.13451   0.26884   0.66724   1.000
    C32     C    0.14754   0.37318   0.68421   1.000
    C33     C    0.21748   0.42737   0.75379   1.000
    C34     C    0.27597   0.37586   0.80322   1.000
    C35     C    0.26473   0.27078   0.78445   1.000
loop_
    _geom_bond_atom_site_label_1
    _geom_bond_atom_site_label_2
    _geom_bond_distance
    _geom_bond_site_symmetry_2
    _ccdc_geom_bond_type
    H0     C13       1.09074      .   S
    C13    C14       1.39733      .   S
    C13    C12       1.39925      .   S
    H5     C23       1.08415      .   S
    C14    C15       1.39995      .   S
    C22    C23       1.40028      .   S
    C22    C21       1.39747      .   S
    C23    C18       1.39785      .   S
    C12    C17       1.39775      .   S
    H4     C21       1.08804      .   S
    C21    C20       1.39964      .   S
    C15    H1        1.08811      .   S
    C15    C16       1.39779      .   S
    C18    C19       1.39919      .   S
    C17    C16       1.40031      .   S
    C17    H2        1.08424      .   S
    C20    C19       1.39715      .   S
    C19    H3        1.09072      .   S
    H9     C31       1.09074      .   S
    C31    C32       1.39720      .   S
    C31    C30       1.39861      .   S
    H8     C29       1.08494      .   S
    C32    C33       1.39978      .   S
    C28    C29       1.40016      .   S
    C28    C27       1.39743      .   S
    C29    C24       1.39778      .   S
    C30    C35       1.39846      .   S
    H7     C27       1.08809      .   S
    C27    C26       1.39966      .   S
    C33    H10       1.08803      .   S
    C33    C34       1.39757      .   S
    C24    C25       1.39920      .   S
    C35    C34       1.40034      .   S
    C35    H11       1.08379      .   S
    C26    C25       1.39722      .   S
    C25    H6        1.09072      .   S
