# CIF file generated by openbabel 2.4.90, see http://openbabel.sf.net
data_I
_chemical_name_common ''
_cell_length_a 13.701
_cell_length_b 13.846
_cell_length_c 14.057
_cell_angle_alpha 108.95
_cell_angle_beta 90.087
_cell_angle_gamma 89.967
_space_group_name_H-M_alt 'P 1'
_space_group_name_Hall 'P 1'
loop_
    _symmetry_equiv_pos_as_xyz
    x,y,z
loop_
    _atom_site_label
    _atom_site_type_symbol
    _atom_site_fract_x
    _atom_site_fract_y
    _atom_site_fract_z
    _atom_site_occupancy
    Zn0     Zn   0.05823   0.59139   0.53748   1.000
    Zn1     Zn   0.44189   0.59141   0.03733   1.000
    Zn2     Zn   0.94194   0.41220   0.46270   1.000
    Zn3     Zn   0.55820   0.41204   0.96295   1.000
    C4      C    0.41142   0.42491   0.12404   1.000
    C5      C    0.14645   0.43129   0.37630   1.000
    C6      C    0.91172   0.57891   0.37630   1.000
    C7      C    0.64619   0.57279   0.12429   1.000
    C8      C    0.58964   0.57725   0.87602   1.000
    C9      C    0.85388   0.57251   0.62390   1.000
    C10     C    0.08836   0.42396   0.62360   1.000
    C11     C    0.35360   0.43096   0.87627   1.000
    O12     O    0.47978   0.37204   0.07089   1.000
    O13     O    0.38698   0.51522   0.12914   1.000
    O14     O    0.16225   0.52366   0.42930   1.000
    O15     O    0.07072   0.37911   0.37923   1.000
    O16     O    0.98045   0.63146   0.42930   1.000
    O17     O    0.88703   0.48869   0.37116   1.000
    O18     O    0.66185   0.48028   0.07165   1.000
    O19     O    0.57060   0.62507   0.12088   1.000
    O20     O    0.52029   0.62915   0.92828   1.000
    O21     O    0.61539   0.48747   0.87153   1.000
    O22     O    0.83815   0.48011   0.57085   1.000
    O23     O    0.92945   0.62485   0.62080   1.000
    O24     O    0.01979   0.37126   0.57050   1.000
    O25     O    0.11291   0.51422   0.62875   1.000
    O26     O    0.33762   0.52328   0.92931   1.000
    O27     O    0.42963   0.37907   0.87900   1.000
loop_
    _geom_bond_atom_site_label_1
    _geom_bond_atom_site_label_2
    _geom_bond_distance
    _geom_bond_site_symmetry_2
    _ccdc_geom_bond_type
    Zn1    O19       2.08450      .   S
    Zn1    O13       2.05733      .   S
    Zn1    O20       2.07426  1_554   S
    Zn1    O26       2.07391  1_554   S
    O12    C4        1.27180      .   S
    O12    Zn3       2.07713  1_554   S
    O18    C7        1.27237      .   S
    O18    Zn3       2.07404  1_554   S
    O19    C7        1.27304      .   S
    C4     O13       1.27369      .   S
    O17    C6        1.27355      .   S
    O17    Zn2       2.05540      .   S
    C6     O16       1.27190      .   S
    C5     O15       1.27294      .   S
    C5     O14       1.27223      .   S
    O15    Zn2       2.08716  1_455   S
    O14    Zn0       2.07403      .   S
    O16    Zn0       2.07328  1_655   S
    Zn2    O24       2.07549  1_655   S
    Zn2    O22       2.07223      .   S
    Zn0    O23       2.08626  1_455   S
    Zn0    O25       2.05799      .   S
    O24    C10       1.27165      .   S
    O22    C9        1.27253      .   S
    O23    C9        1.27307      .   S
    C10    O25       1.27344      .   S
    O21    C8        1.27367      .   S
    O21    Zn3       2.05722      .   S
    C8     O20       1.27182      .   S
    C11    O27       1.27270      .   S
    C11    O26       1.27232      .   S
    O27    Zn3       2.08530      .   S
    Zn3    Zn1       2.84855  1_556   S
    Zn0    Zn2       2.84685  1_455   S
