# CIF file generated by openbabel 2.4.90, see http://openbabel.sf.net
data_I
_chemical_name_common ''
_cell_length_a 13.701
_cell_length_b 13.846
_cell_length_c 14.057
_cell_angle_alpha 108.95
_cell_angle_beta 90.087
_cell_angle_gamma 89.967
_space_group_name_H-M_alt 'P 1'
_space_group_name_Hall 'P 1'
loop_
    _symmetry_equiv_pos_as_xyz
    x,y,z
loop_
    _atom_site_label
    _atom_site_type_symbol
    _atom_site_fract_x
    _atom_site_fract_y
    _atom_site_fract_z
    _atom_site_occupancy
    C0      C    0.41142   0.42491   0.12404   1.000
    C1      C    0.14645   0.43129   0.37630   1.000
    C2      C    0.91172   0.57891   0.37630   1.000
    C3      C    0.64619   0.57279   0.12429   1.000
    C4      C    0.58964   0.57725   0.87602   1.000
    C5      C    0.85388   0.57251   0.62390   1.000
    C6      C    0.08836   0.42396   0.62360   1.000
    C7      C    0.35360   0.43096   0.87627   1.000
