# CIF file generated by openbabel 2.4.90, see http://openbabel.sf.net
data_I
_chemical_name_common ''
_cell_length_a 13.701
_cell_length_b 13.846
_cell_length_c 14.057
_cell_angle_alpha 108.95
_cell_angle_beta 90.087
_cell_angle_gamma 89.967
_space_group_name_H-M_alt 'P 1'
_space_group_name_Hall 'P 1'
loop_
    _symmetry_equiv_pos_as_xyz
    x,y,z
loop_
    _atom_site_label
    _atom_site_type_symbol
    _atom_site_fract_x
    _atom_site_fract_y
    _atom_site_fract_z
    _atom_site_occupancy
    N0      N    0.20560   0.32249   0.73481   1.000
    N1      N    0.79430   0.68085   0.26574   1.000
    N2      N    0.29446   0.32334   0.23510   1.000
    N3      N    0.70586   0.67973   0.76536   1.000
    Zr4     Zr   0.50022   0.50150   0.00011   1.000
    O5      O    0.38021   0.43222   0.89369   1.000
    O6      O    0.61994   0.57102   0.10670   1.000
    Zr7     Zr   0.00010   0.50169   0.50001   1.000
    O8      O    0.11998   0.43265   0.39373   1.000
    O9      O    0.88030   0.57071   0.60648   1.000
    O10     O    0.57309   0.46637   0.92348   1.000
    O11     O    0.42723   0.53663   0.07691   1.000
    O12     O    0.92706   0.46698   0.42334   1.000
    O13     O    0.07311   0.53636   0.57692   1.000
loop_
    _geom_bond_atom_site_label_1
    _geom_bond_atom_site_label_2
    _geom_bond_distance
    _geom_bond_site_symmetry_2
    _ccdc_geom_bond_type
    Zr4    O5        2.21901  1_554   S
    N0     O5        3.28694      .   S
    Zr4    O6        2.21804      .   S
    N1     O6        3.28597      .   S
    Zr7    O8        2.21847      .   S
    N2     O8        3.28607      .   S
    Zr7    O9        2.21896  1_455   S
    N3     O9        3.28649      .   S
    Zr4    O10       1.43389  1_554   S
    N3     O10       4.61093      .   S
    Zr4    O11       1.43663      .   S
    N2     O11       4.61066      .   S
    N1     O12       4.60733      .   S
    Zr7    O12       1.43347  1_455   S
    Zr7    O13       1.43535      .   S
    N0     O13       4.60874      .   S
