# CIF file generated by openbabel 2.4.90, see http://openbabel.sf.net
data_I
_chemical_name_common ''
_cell_length_a 13.701
_cell_length_b 13.846
_cell_length_c 14.057
_cell_angle_alpha 108.95
_cell_angle_beta 90.087
_cell_angle_gamma 89.967
_space_group_name_H-M_alt 'P 1'
_space_group_name_Hall 'P 1'
loop_
    _symmetry_equiv_pos_as_xyz
    x,y,z
loop_
    _atom_site_label
    _atom_site_type_symbol
    _atom_site_fract_x
    _atom_site_fract_y
    _atom_site_fract_z
    _atom_site_occupancy
    Zr0     Zr   0.55820   0.41204   0.96295   1.000
    Zr1     Zr   0.05823   0.59139   0.53748   1.000
    Zr2     Zr   0.44189   0.59141   0.03733   1.000
    Zr3     Zr   0.94194   0.41220   0.46270   1.000
    Zr4     Zr   0.41142   0.42491   0.12404   1.000
    Zr5     Zr   0.14645   0.43129   0.37630   1.000
    Zr6     Zr   0.91172   0.57891   0.37630   1.000
    Zr7     Zr   0.64619   0.57279   0.12429   1.000
    Zr8     Zr   0.58964   0.57725   0.87602   1.000
    Zr9     Zr   0.85388   0.57251   0.62390   1.000
    Zr10    Zr   0.08836   0.42396   0.62360   1.000
    Zr11    Zr   0.35360   0.43096   0.87627   1.000
    Zr12    Zr   0.47978   0.37204   0.07089   1.000
    Zr13    Zr   0.38698   0.51522   0.12914   1.000
    Zr14    Zr   0.16225   0.52366   0.42930   1.000
    Zr15    Zr   0.07072   0.37911   0.37923   1.000
    Zr16    Zr   0.98045   0.63146   0.42930   1.000
    Zr17    Zr   0.88703   0.48869   0.37116   1.000
    Zr18    Zr   0.66185   0.48028   0.07165   1.000
    Zr19    Zr   0.57060   0.62507   0.12088   1.000
    Zr20    Zr   0.52029   0.62915   0.92828   1.000
    Zr21    Zr   0.61539   0.48747   0.87153   1.000
    Zr22    Zr   0.83815   0.48011   0.57085   1.000
    Zr23    Zr   0.92945   0.62485   0.62080   1.000
    Zr24    Zr   0.01979   0.37126   0.57050   1.000
    Zr25    Zr   0.11291   0.51422   0.62875   1.000
    Zr26    Zr   0.33762   0.52328   0.92931   1.000
    Zr27    Zr   0.42963   0.37907   0.87900   1.000
    O28     O    0.50625   0.60824   0.07911   1.000
    O29     O    0.41444   0.55331   0.08324   1.000
    O30     O    0.48109   0.61028   0.98281   1.000
    O31     O    0.38976   0.55734   0.98332   1.000
    O32     O    0.44560   0.39848   0.09746   1.000
    O33     O    0.51899   0.39204   0.01692   1.000
    O34     O    0.65402   0.52654   0.09797   1.000
    O35     O    0.61002   0.44616   0.01730   1.000
    O36     O    0.60840   0.59893   0.12258   1.000
    O37     O    0.39920   0.47006   0.12659   1.000
    O38     O    0.89938   0.53380   0.37373   1.000
    O39     O    0.91449   0.45045   0.41693   1.000
    O40     O    0.94608   0.60519   0.40280   1.000
    O41     O    0.10859   0.40520   0.37777   1.000
    O42     O    0.15435   0.47747   0.40280   1.000
    O43     O    0.00633   0.39566   0.42097   1.000
    O44     O    0.11024   0.55752   0.48339   1.000
    O45     O    0.01934   0.61142   0.48339   1.000
    O46     O    0.98087   0.39173   0.51660   1.000
    O47     O    0.89004   0.44616   0.51677   1.000
    O48     O    0.99384   0.60812   0.57914   1.000
    O49     O    0.08557   0.55280   0.58312   1.000
    O50     O    0.05408   0.39761   0.59705   1.000
    O51     O    0.84602   0.52631   0.59737   1.000
    O52     O    0.89167   0.59868   0.62235   1.000
    O53     O    0.10063   0.46909   0.62618   1.000
    O54     O    0.60252   0.53236   0.87377   1.000
    O55     O    0.58679   0.44976   0.91724   1.000
    O56     O    0.55497   0.60320   0.90215   1.000
    O57     O    0.39161   0.40502   0.87764   1.000
    O58     O    0.34561   0.47712   0.90279   1.000
    O59     O    0.49391   0.39556   0.92098   1.000
    O60     O    0.50005   0.50172   0.00014   1.000
    O61     O    0.00009   0.50179   0.50009   1.000
    N62     N    0.20560   0.32249   0.73481   1.000
    O63     O    0.16177   0.36053   0.69436   1.000
    O64     O    0.26019   0.36295   0.78728   1.000
    O65     O    0.13049   0.78155   0.61329   1.000
    N66     N    0.79430   0.68085   0.26574   1.000
    O67     O    0.83819   0.64264   0.30596   1.000
    O68     O    0.73966   0.64055   0.21329   1.000
    O69     O    0.86986   0.22191   0.38737   1.000
    N70     N    0.29446   0.32334   0.23510   1.000
    O71     O    0.23985   0.36362   0.28744   1.000
    O72     O    0.33817   0.36144   0.19471   1.000
    O73     O    0.37029   0.78208   0.11271   1.000
    N74     N    0.70586   0.67973   0.76536   1.000
    O75     O    0.66242   0.64131   0.80561   1.000
    O76     O    0.76051   0.63974   0.71294   1.000
    O77     O    0.62949   0.22118   0.88810   1.000
loop_
    _geom_bond_atom_site_label_1
    _geom_bond_atom_site_label_2
    _geom_bond_distance
    _geom_bond_site_symmetry_2
    _ccdc_geom_bond_type
    Zr2    O28       1.04225      .   S
    Zr19   O28       1.04225      .   S
    Zr2    O29       1.02866      .   S
    Zr13   O29       1.02866      .   S
    Zr2    O30       1.03713  1_554   S
    Zr20   O30       1.03713      .   S
    Zr2    O31       1.03696  1_554   S
    Zr26   O31       1.03696      .   S
    Zr12   O32       0.63590      .   S
    Zr4    O32       0.63590      .   S
    Zr12   O33       1.03856      .   S
    Zr0    O33       1.03856  1_556   S
    Zr18   O34       0.63618      .   S
    Zr7    O34       0.63618      .   S
    Zr18   O35       1.03702      .   S
    Zr0    O35       1.03702  1_556   S
    Zr19   O36       0.63652      .   S
    Zr7    O36       0.63652      .   S
    Zr4    O37       0.63684      .   S
    Zr13   O37       0.63684      .   S
    Zr17   O38       0.63678      .   S
    Zr6    O38       0.63678      .   S
    Zr17   O39       1.02770      .   S
    Zr3    O39       1.02770      .   S
    Zr6    O40       0.63595      .   S
    Zr16   O40       0.63595      .   S
    Zr5    O41       0.63647      .   S
    Zr15   O41       0.63647      .   S
    Zr5    O42       0.63611      .   S
    Zr14   O42       0.63611      .   S
    Zr15   O43       1.04358      .   S
    Zr3    O43       1.04358  1_655   S
    Zr14   O44       1.03702      .   S
    Zr1    O44       1.03702      .   S
    Zr16   O45       1.03664  1_655   S
    Zr1    O45       1.03664      .   S
    Zr3    O46       1.03774      .   S
    Zr24   O46       1.03774  1_455   S
    Zr3    O47       1.03611      .   S
    Zr22   O47       1.03611      .   S
    Zr1    O48       1.04313  1_455   S
    Zr23   O48       1.04313      .   S
    Zr1    O49       1.02899      .   S
    Zr25   O49       1.02899      .   S
    Zr24   O50       0.63582      .   S
    Zr10   O50       0.63582      .   S
    Zr22   O51       0.63626      .   S
    Zr9    O51       0.63626      .   S
    Zr23   O52       0.63653      .   S
    Zr9    O52       0.63653      .   S
    Zr10   O53       0.63672      .   S
    Zr25   O53       0.63672      .   S
    Zr21   O54       0.63684      .   S
    Zr8    O54       0.63684      .   S
    Zr21   O55       1.02861      .   S
    Zr0    O55       1.02861      .   S
    Zr8    O56       0.63591      .   S
    Zr20   O56       0.63591      .   S
    Zr11   O57       0.63635      .   S
    Zr27   O57       0.63635      .   S
    Zr11   O58       0.63616      .   S
    Zr26   O58       0.63616      .   S
    Zr27   O59       1.04265      .   S
    Zr0    O59       1.04265      .   S
    Zr0    O60       1.42427  1_556   S
    Zr2    O60       1.42427      .   S
    Zr1    O61       1.42343      .   S
    Zr3    O61       1.42343  1_655   S
    N62    O63       1.07443      .   S
    Zr10   O63       1.82636      .   S
    N62    O64       1.07134      .   S
    Zr11   O64       1.82234      .   S
    N62    O65       7.17055      .   S
    Zr1    O65       2.68816      .   S
    N66    O67       1.07421      .   S
    Zr6    O67       1.82585      .   S
    N66    O68       1.07105      .   S
    Zr7    O68       1.82189      .   S
    N66    O69       7.17064      .   S
    Zr3    O69       2.68821      .   S
    N70    O71       1.07092      .   S
    Zr5    O71       1.82184      .   S
    N70    O72       1.07477      .   S
    Zr4    O72       1.82688      .   S
    N70    O73       7.17588      .   S
    Zr2    O73       2.69038      .   S
    N74    O75       1.07439      .   S
    Zr8    O75       1.82613      .   S
    N74    O76       1.07062      .   S
    Zr9    O76       1.82122      .   S
    N74    O77       7.17713      .   S
    Zr0    O77       2.69054      .   S
