# CIF file generated by openbabel 2.4.90, see http://openbabel.sf.net
data_I
_chemical_name_common ''
_cell_length_a 13.701
_cell_length_b 13.846
_cell_length_c 14.057
_cell_angle_alpha 108.95
_cell_angle_beta 90.087
_cell_angle_gamma 89.967
_space_group_name_H-M_alt 'P 1'
_space_group_name_Hall 'P 1'
loop_
    _symmetry_equiv_pos_as_xyz
    x,y,z
loop_
    _atom_site_label
    _atom_site_type_symbol
    _atom_site_fract_x
    _atom_site_fract_y
    _atom_site_fract_z
    _atom_site_occupancy
    N0      N    0.20560   0.32249   0.73481   1.000
    N1      N    0.79430   0.68085   0.26574   1.000
    N2      N    0.29446   0.32334   0.23510   1.000
    N3      N    0.70586   0.67973   0.76536   1.000
    Zr4     Zr   0.50022   0.50150   0.00011   1.000
    O5      O    0.56485   0.36134   0.94410   1.000
    O6      O    0.43526   0.64179   0.05641   1.000
    O7      O    0.41919   0.43147   0.09741   1.000
    O8      O    0.38021   0.43222   0.89369   1.000
    O9      O    0.58132   0.57140   0.90286   1.000
    O10     O    0.61994   0.57102   0.10670   1.000
    Zr11    Zr   0.00010   0.50169   0.50001   1.000
    O12     O    0.11998   0.43265   0.39373   1.000
    O13     O    0.91914   0.57216   0.40299   1.000
    O14     O    0.06529   0.64162   0.55665   1.000
    O15     O    0.08094   0.43111   0.59718   1.000
    O16     O    0.88030   0.57071   0.60648   1.000
    O17     O    0.93498   0.36180   0.44369   1.000
loop_
    _geom_bond_atom_site_label_1
    _geom_bond_atom_site_label_2
    _geom_bond_distance
    _geom_bond_site_symmetry_2
    _ccdc_geom_bond_type
    Zr4    O5        2.04401  1_554   S
    N3     O5        6.05801      .   S
    Zr4    O6        2.04777      .   S
    N2     O6        6.05716      .   S
    Zr4    O7        2.21595      .   S
    N2     O7        3.28681      .   S
    Zr4    O8        2.21901  1_554   S
    N0     O8        3.28694      .   S
    Zr4    O9        2.21488  1_554   S
    N3     O9        3.28532      .   S
    Zr4    O10       2.21804      .   S
    N1     O10       3.28597      .   S
    Zr11   O12       2.21847      .   S
    N2     O12       3.28607      .   S
    Zr11   O13       2.21387  1_455   S
    N1     O13       3.28404      .   S
    Zr11   O14       2.04542      .   S
    N0     O14       6.05429      .   S
    Zr11   O15       2.21555      .   S
    N0     O15       3.28608      .   S
    Zr11   O16       2.21896  1_455   S
    N3     O16       3.28649      .   S
    Zr11   O17       2.04409  1_455   S
    N1     O17       6.05309      .   S
