# CIF file generated by openbabel 2.4.90, see http://openbabel.sf.net
data_I
_chemical_name_common ''
_cell_length_a 14.816
_cell_length_b 14.822
_cell_length_c 14.809
_cell_angle_alpha 109.433
_cell_angle_beta 109.37
_cell_angle_gamma 109.348
_space_group_name_H-M_alt 'P 1'
_space_group_name_Hall 'P 1'
loop_
    _symmetry_equiv_pos_as_xyz
    x,y,z
loop_
    _atom_site_label
    _atom_site_type_symbol
    _atom_site_fract_x
    _atom_site_fract_y
    _atom_site_fract_z
    _atom_site_occupancy
    Zn0     Zn   0.24861   0.50026   0.75023   1.000
    Zn1     Zn   0.25020   0.75051   0.49918   1.000
    Zn2     Zn   0.75022   0.24988   0.50158   1.000
    Zn3     Zn   0.50112   0.75140   0.24932   1.000
    Zn4     Zn   0.49892   0.24948   0.75103   1.000
    H5      H    0.65980   0.53605   0.42402   1.000
    H6      H    0.11556   0.23730   0.59281   1.000
    H7      H    0.88534   0.46554   0.12591   1.000
    H8      H    0.34276   0.76053   0.87493   1.000
    H9      H    0.12478   0.88693   0.46692   1.000
    H10     H    0.87594   0.34880   0.76390   1.000
    H11     H    0.41538   0.65270   0.52833   1.000
    H12     H    0.59263   0.11759   0.23922   1.000
    H13     H    0.23916   0.59357   0.11733   1.000
    H14     H    0.52510   0.41044   0.64938   1.000
    H15     H    0.76145   0.87545   0.34290   1.000
    H16     H    0.47587   0.12285   0.88861   1.000
    H17     H    0.23848   0.11574   0.58554   1.000
    H18     H    0.53138   0.65500   0.41461   1.000
    H19     H    0.76014   0.34864   0.87790   1.000
    H20     H    0.47961   0.88884   0.12274   1.000
    H21     H    0.66120   0.42093   0.53863   1.000
    H22     H    0.11424   0.58161   0.23778   1.000
    H23     H    0.88664   0.12214   0.47904   1.000
    H24     H    0.34422   0.87568   0.76046   1.000
    H25     H    0.12276   0.47796   0.88824   1.000
    H26     H    0.87633   0.76048   0.34468   1.000
    H27     H    0.41145   0.52652   0.65025   1.000
    H28     H    0.74669   0.26133   0.22554   1.000
    H29     H    0.82707   0.26692   0.34940   1.000
    H30     H    0.87840   0.37783   0.32460   1.000
    H31     H    0.92642   0.47909   0.68577   1.000
    Zn32    Zn   0.75167   0.50086   0.25321   1.000
    H33     H    0.99426   0.52350   0.61786   1.000
    H34     H    0.07327   0.55341   0.75427   1.000
    H35     H    0.91959   0.66586   0.47776   1.000
    H36     H    0.05786   0.77247   0.53998   1.000
    H37     H    0.03214   0.64984   0.54543   1.000
    H38     H    0.20435   0.44722   0.52134   1.000
    H39     H    0.20864   0.52127   0.44804   1.000
    H40     H    0.09527   0.47306   0.46924   1.000
    H41     H    0.53165   0.00634   0.63030   1.000
    H42     H    0.47618   0.92280   0.68127   1.000
    H43     H    0.54839   0.06930   0.76359   1.000
    H44     H    0.47884   0.09611   0.46660   1.000
    H45     H    0.51993   0.21500   0.45280   1.000
    H46     H    0.44423   0.19660   0.52320   1.000
    H47     H    0.23197   0.76150   0.26661   1.000
    H48     H    0.35840   0.83798   0.27455   1.000
    H49     H    0.33505   0.88878   0.38681   1.000
    H50     H    0.75094   0.07633   0.55589   1.000
    H51     H    0.69313   0.93063   0.48027   1.000
    H52     H    0.61538   0.98655   0.52023   1.000
    H53     H    0.48007   0.69585   0.93135   1.000
    H54     H    0.51842   0.61465   0.98260   1.000
    H55     H    0.55560   0.74957   0.07635   1.000
    H56     H    0.30844   0.24015   0.79177   1.000
    H57     H    0.24604   0.32459   0.80377   1.000
    H58     H    0.38138   0.37427   0.90691   1.000
    H59     H    0.52382   0.44780   0.20656   1.000
    H60     H    0.46920   0.47418   0.09839   1.000
    H61     H    0.45112   0.52236   0.21392   1.000
    H62     H    0.63609   0.47915   0.91768   1.000
    H63     H    0.76641   0.52675   0.02940   1.000
    H64     H    0.66835   0.55454   0.05668   1.000
    C65     C    0.68605   0.47546   0.42098   1.000
    C66     C    0.05722   0.26645   0.59132   1.000
    C67     C    0.94363   0.52644   0.21209   1.000
    C68     C    0.31530   0.73182   0.78805   1.000
    C69     C    0.21116   0.94436   0.52747   1.000
    C70     C    0.78878   0.31954   0.73449   1.000
    C71     C    0.41493   0.68183   0.47010   1.000
    C72     C    0.59129   0.05899   0.26791   1.000
    C73     C    0.26766   0.59157   0.05845   1.000
    C74     C    0.46789   0.41157   0.67961   1.000
    C75     C    0.73272   0.78873   0.31588   1.000
    C76     C    0.53338   0.20982   0.94541   1.000
    C77     C    0.26740   0.05749   0.58596   1.000
    C78     C    0.47226   0.68292   0.41384   1.000
    C79     C    0.73155   0.31932   0.79086   1.000
    C80     C    0.53543   0.94585   0.21028   1.000
    C81     C    0.68655   0.41842   0.47746   1.000
    C82     C    0.05680   0.58384   0.26746   1.000
    C83     C    0.94404   0.20950   0.53504   1.000
    C84     C    0.31595   0.78873   0.73144   1.000
    C85     C    0.21011   0.53455   0.94522   1.000
    C86     C    0.78948   0.73194   0.31664   1.000
    C87     C    0.41161   0.46885   0.67996   1.000
    C88     C    0.59354   0.26962   0.05797   1.000
    C89     C    0.80415   0.31594   0.31484   1.000
    C90     C    0.75427   0.36970   0.37066   1.000
    C91     C    0.99838   0.49057   0.67480   1.000
    C92     C    0.99940   0.38487   0.63086   1.000
    C93     C    0.00256   0.68279   0.49259   1.000
    C94     C    0.00132   0.63191   0.38644   1.000
    C95     C    0.18534   0.50865   0.50700   1.000
    C96     C    0.24327   0.61418   0.61339   1.000
    C97     C    0.49054   0.99953   0.67943   1.000
    C98     C    0.38504   0.00001   0.63139   1.000
    C99     C    0.50887   0.18529   0.50927   1.000
    C100    C    0.61398   0.24410   0.61552   1.000
    C101    C    0.32165   0.81415   0.32182   1.000
    C102    C    0.37135   0.75755   0.37045   1.000
    C103    C    0.67529   0.99851   0.49083   1.000
    C104    C    0.63118   0.00033   0.38554   1.000
    C105    C    0.49013   0.67533   0.99746   1.000
    C106    C    0.38502   0.63090   0.99944   1.000
    C107    C    0.32347   0.32464   0.81741   1.000
    C108    C    0.36899   0.37008   0.75668   1.000
    C109    C    0.50953   0.50944   0.18856   1.000
    C110    C    0.61497   0.61465   0.24518   1.000
    C111    C    0.67768   0.49205   0.00107   1.000
    C112    C    0.63020   0.38647   0.00130   1.000
    N113    N    0.72869   0.44437   0.35340   1.000
    N114    N    0.09202   0.37721   0.65208   1.000
    N115    N    0.90873   0.55720   0.28739   1.000
    N116    N    0.26972   0.62162   0.71338   1.000
    N117    N    0.28554   0.90818   0.55665   1.000
    N118    N    0.71439   0.27237   0.62380   1.000
    N119    N    0.35099   0.72872   0.44233   1.000
    N120    N    0.65199   0.09322   0.37859   1.000
    N121    N    0.37813   0.65260   0.09257   1.000
    N122    N    0.44058   0.34892   0.72783   1.000
    N123    N    0.62261   0.71455   0.27107   1.000
    N124    N    0.55818   0.28620   0.90970   1.000
    N125    N    0.37719   0.09248   0.65188   1.000
    N126    N    0.44435   0.73049   0.35066   1.000
    N127    N    0.62117   0.27189   0.71558   1.000
    N128    N    0.56099   0.90892   0.28471   1.000
    N129    N    0.72949   0.35146   0.44534   1.000
    N130    N    0.09305   0.65072   0.37746   1.000
    N131    N    0.90768   0.28446   0.56041   1.000
    N132    N    0.27078   0.71434   0.62116   1.000
    N133    N    0.28439   0.55982   0.90800   1.000
    N134    N    0.71498   0.62201   0.27224   1.000
    N135    N    0.34890   0.44223   0.72833   1.000
    N136    N    0.65375   0.37867   0.09484   1.000
loop_
    _geom_bond_atom_site_label_1
    _geom_bond_atom_site_label_2
    _geom_bond_distance
    _geom_bond_site_symmetry_2
    _ccdc_geom_bond_type
    C111   C112      1.48981      .   S
    C111   H63       1.10068      .   S
    C111   H64       1.09905      .   S
    C111   H62       1.09606  1_554   S
    C112   N136      1.36629      .   S
    C112   N124      1.35463  1_554   S
    C88    N136      1.35669      .   S
    C88    C76       1.36620  1_554   S
    C73    N121      1.38522      .   S
    C73    H13       1.08391      .   S
    C73    C85       1.37264  1_554   S
    H55    C105      1.09649  1_554   S
    N121   Zn3       2.00433      .   S
    N121   C106      1.35492  1_554   S
    N136   Zn32      2.01517      .   S
    H60    C109      1.10123      .   S
    H20    C80       1.08420      .   S
    H7     C67       1.08407      .   S
    C109   H59       1.09693      .   S
    C109   H61       1.09739      .   S
    C109   C110      1.49071      .   S
    C80    C72       1.37292  1_565   S
    C80    N128      1.38560      .   S
    C67    C82       1.37340  1_655   S
    C67    N115      1.38534      .   S
    H28    C89       1.10142      .   S
    H22    C82       1.08429      .   S
    H12    C72       1.08397      .   S
    C110   N123      1.35441      .   S
    C110   N134      1.35582      .   S
    Zn3    N123      2.00649      .   S
    Zn3    N128      2.00453      .   S
    Zn3    N126      2.00743      .   S
    Zn32   N134      2.00281      .   S
    Zn32   N115      2.00456      .   S
    Zn32   N113      1.99782      .   S
    H47    C101      1.10029      .   S
    C82    N130      1.38461      .   S
    C72    N120      1.38536      .   S
    N123   C75       1.38522      .   S
    N134   C86       1.38537      .   S
    H48    C101      1.09603      .   S
    N128   C104      1.35532  1_565   S
    N115   C94       1.35560  1_655   S
    C89    H30       1.10000      .   S
    C89    H29       1.09584      .   S
    C89    C90       1.49051      .   S
    C75    C86       1.37283      .   S
    C75    H15       1.08434      .   S
    C86    H26       1.08411      .   S
    C101   C102      1.49140      .   S
    C101   H49       1.09938      .   S
    N126   C102      1.35496      .   S
    N126   C78       1.38536      .   S
    N113   C90       1.35485      .   S
    N113   C65       1.38505      .   S
    C102   N119      1.35534      .   S
    C90    N129      1.35414      .   S
    N130   C94       1.35487      .   S
    N130   Zn1       2.00455      .   S
    N120   C104      1.35472      .   S
    N120   Zn2       2.00388      .   S
    C104   C103      1.49090  1_545   S
    C94    C93       1.49101      .   S
    C78    H18       1.08417      .   S
    C78    C71       1.37303      .   S
    C65    H5        1.08446      .   S
    C65    C81       1.37297      .   S
    N119   C71       1.38485      .   S
    N119   Zn1       2.00387      .   S
    N129   C81       1.38590      .   S
    N129   Zn2       2.00645      .   S
    H39    C95       1.08736      .   S
    H45    C99       1.09922      .   S
    H44    C99       1.10111      .   S
    H9     C69       1.08415      .   S
    H40    C95       1.10190      .   S
    C71    H11       1.08431      .   S
    C81    H21       1.08430      .   S
    H35    C93       1.09647  1_655   S
    H23    C83       1.08423      .   S
    H51    C103      1.09802      .   S
    C103   H52       1.10113      .   S
    C103   H50       1.09657  1_565   S
    C93    H36       1.09867      .   S
    C93    H37       1.10061      .   S
    Zn1    N117      2.00751      .   S
    Zn1    N132      2.00767      .   S
    Zn2    N131      2.00668      .   S
    Zn2    N118      2.00554      .   S
    C95    H38       1.10099      .   S
    C95    C96       1.49640      .   S
    C99    H46       1.09659      .   S
    C99    C100      1.49103      .   S
    C69    N117      1.38516      .   S
    C69    C77       1.37308  1_565   S
    C83    N131      1.38520      .   S
    C83    C66       1.37334  1_655   S
    N117   C98       1.35521  1_565   S
    N131   C92       1.35509      .   S
    H17    C77       1.08431      .   S
    C77    N125      1.38516      .   S
    C66    H6        1.08419      .   S
    C66    N114      1.38524      .   S
    C96    N132      1.35567      .   S
    C96    N116      1.35504      .   S
    C100   N118      1.35477      .   S
    C100   N127      1.35526      .   S
    H33    C91       1.10101      .   S
    N132   C84       1.38512      .   S
    N118   C70       1.38526      .   S
    H41    C97       1.10122  1_545   S
    C92    N114      1.35477  1_655   S
    C92    C91       1.49078      .   S
    C98    N125      1.35520      .   S
    C98    C97       1.49081  1_545   S
    H14    C74       1.08422      .   S
    H27    C87       1.08411      .   S
    N125   Zn4       2.00318      .   S
    N114   Zn0       2.00422      .   S
    C91    H31       1.09777      .   S
    C91    H34       1.09695  1_655   S
    C97    H42       1.09698      .   S
    C97    H43       1.09722  1_565   S
    C74    C87       1.37294      .   S
    C74    N122      1.38557      .   S
    C87    N135      1.38520      .   S
    N116   Zn0       2.00621      .   S
    N116   C68       1.38526      .   S
    N127   Zn4       2.00367      .   S
    N127   C79       1.38525      .   S
    N122   Zn4       2.00548      .   S
    N122   C108      1.35566      .   S
    N135   Zn0       2.00839      .   S
    N135   C108      1.35468      .   S
    C84    H24       1.08419      .   S
    C84    C68       1.37286      .   S
    C70    H10       1.08434      .   S
    C70    C79       1.37300      .   S
    Zn0    N133      2.00376      .   S
    Zn4    N124      2.01302      .   S
    C108   C107      1.49057      .   S
    C68    H8        1.08430      .   S
    C79    H19       1.08297      .   S
    H56    C107      1.09765      .   S
    H57    C107      1.09661      .   S
    C107   H58       1.10121      .   S
    H25    C85       1.08435      .   S
    H16    C76       1.08189      .   S
    N133   C85       1.38624      .   S
    N133   C106      1.35545      .   S
    N124   C76       1.39569      .   S
    H53    C105      1.09752      .   S
    H54    C105      1.10107      .   S
    C105   C106      1.49108      .   S
