# CIF file generated by openbabel 2.4.90, see http://openbabel.sf.net
data_I
_chemical_name_common ''
_cell_length_a 14.816
_cell_length_b 14.822
_cell_length_c 14.809
_cell_angle_alpha 109.433
_cell_angle_beta 109.37
_cell_angle_gamma 109.348
_space_group_name_H-M_alt 'P 1'
_space_group_name_Hall 'P 1'
loop_
    _symmetry_equiv_pos_as_xyz
    x,y,z
loop_
    _atom_site_label
    _atom_site_type_symbol
    _atom_site_fract_x
    _atom_site_fract_y
    _atom_site_fract_z
    _atom_site_occupancy
    Zn0     Zn   0.24861   0.50026   0.75023   1.000
    Zn1     Zn   0.25020   0.75051   0.49918   1.000
    Zn2     Zn   0.75022   0.24988   0.50158   1.000
    Zn3     Zn   0.50112   0.75140   0.24932   1.000
    Zn4     Zn   0.49892   0.24948   0.75103   1.000
    Zn5     Zn   0.75167   0.50086   0.25321   1.000
