# CIF file generated by openbabel 2.4.90, see http://openbabel.sf.net
data_I
_chemical_name_common ''
_cell_length_a 14.816
_cell_length_b 14.822
_cell_length_c 14.809
_cell_angle_alpha 109.433
_cell_angle_beta 109.37
_cell_angle_gamma 109.348
_space_group_name_H-M_alt 'P 1'
_space_group_name_Hall 'P 1'
loop_
    _symmetry_equiv_pos_as_xyz
    x,y,z
loop_
    _atom_site_label
    _atom_site_type_symbol
    _atom_site_fract_x
    _atom_site_fract_y
    _atom_site_fract_z
    _atom_site_occupancy
    C0      C    0.75167   0.50086   0.25321   1.000
    C1      C    0.24861   0.50026   0.75023   1.000
    C2      C    0.25020   0.75051   0.49918   1.000
    C3      C    0.75022   0.24988   0.50158   1.000
    C4      C    0.50112   0.75140   0.24932   1.000
    C5      C    0.49892   0.24948   0.75103   1.000
    C6      C    0.65980   0.53605   0.42402   1.000
    C7      C    0.11556   0.23730   0.59281   1.000
    C8      C    0.88534   0.46554   0.12591   1.000
    C9      C    0.34276   0.76053   0.87493   1.000
    C10     C    0.12478   0.88693   0.46692   1.000
    C11     C    0.87594   0.34880   0.76390   1.000
    C12     C    0.41538   0.65270   0.52833   1.000
    C13     C    0.59263   0.11759   0.23922   1.000
    C14     C    0.23916   0.59357   0.11733   1.000
    C15     C    0.52510   0.41044   0.64938   1.000
    C16     C    0.76145   0.87545   0.34290   1.000
    C17     C    0.47587   0.12285   0.88861   1.000
    C18     C    0.23848   0.11574   0.58554   1.000
    C19     C    0.53138   0.65500   0.41461   1.000
    C20     C    0.76014   0.34864   0.87790   1.000
    C21     C    0.47961   0.88884   0.12274   1.000
    C22     C    0.66120   0.42093   0.53863   1.000
    C23     C    0.11424   0.58161   0.23778   1.000
    C24     C    0.88664   0.12214   0.47904   1.000
    C25     C    0.34422   0.87568   0.76046   1.000
    C26     C    0.12276   0.47796   0.88824   1.000
    C27     C    0.87633   0.76048   0.34468   1.000
    C28     C    0.41145   0.52652   0.65025   1.000
    C29     C    0.74669   0.26133   0.22554   1.000
    C30     C    0.82707   0.26692   0.34940   1.000
    C31     C    0.87840   0.37783   0.32460   1.000
    C32     C    0.92642   0.47909   0.68577   1.000
    C33     C    0.99426   0.52350   0.61786   1.000
    C34     C    0.07327   0.55341   0.75427   1.000
    C35     C    0.91959   0.66586   0.47776   1.000
    C36     C    0.05786   0.77247   0.53998   1.000
    C37     C    0.03214   0.64984   0.54543   1.000
    C38     C    0.20435   0.44722   0.52134   1.000
    C39     C    0.20864   0.52127   0.44804   1.000
    C40     C    0.09527   0.47306   0.46924   1.000
    C41     C    0.53165   0.00634   0.63030   1.000
    C42     C    0.47618   0.92280   0.68127   1.000
    C43     C    0.54839   0.06930   0.76359   1.000
    C44     C    0.47884   0.09611   0.46660   1.000
    C45     C    0.51993   0.21500   0.45280   1.000
    C46     C    0.44423   0.19660   0.52320   1.000
    C47     C    0.23197   0.76150   0.26661   1.000
    C48     C    0.35840   0.83798   0.27455   1.000
    C49     C    0.33505   0.88878   0.38681   1.000
    C50     C    0.75094   0.07633   0.55589   1.000
    C51     C    0.69313   0.93063   0.48027   1.000
    C52     C    0.61538   0.98655   0.52023   1.000
    C53     C    0.48007   0.69585   0.93135   1.000
    C54     C    0.51842   0.61465   0.98260   1.000
    C55     C    0.55560   0.74957   0.07635   1.000
    C56     C    0.30844   0.24015   0.79177   1.000
    C57     C    0.24604   0.32459   0.80377   1.000
    C58     C    0.38138   0.37427   0.90691   1.000
    C59     C    0.52382   0.44780   0.20656   1.000
    C60     C    0.46920   0.47418   0.09839   1.000
    C61     C    0.45112   0.52236   0.21392   1.000
    C62     C    0.63609   0.47915   0.91768   1.000
    C63     C    0.76641   0.52675   0.02940   1.000
    C64     C    0.66835   0.55454   0.05668   1.000
    C65     C    0.68605   0.47546   0.42098   1.000
    C66     C    0.05722   0.26645   0.59132   1.000
    C67     C    0.94363   0.52644   0.21209   1.000
    C68     C    0.31530   0.73182   0.78805   1.000
    C69     C    0.21116   0.94436   0.52747   1.000
    C70     C    0.78878   0.31954   0.73449   1.000
    C71     C    0.41493   0.68183   0.47010   1.000
    C72     C    0.59129   0.05899   0.26791   1.000
    C73     C    0.26766   0.59157   0.05845   1.000
    C74     C    0.46789   0.41157   0.67961   1.000
    C75     C    0.73272   0.78873   0.31588   1.000
    C76     C    0.53338   0.20982   0.94541   1.000
    C77     C    0.26740   0.05749   0.58596   1.000
    C78     C    0.47226   0.68292   0.41384   1.000
    C79     C    0.73155   0.31932   0.79086   1.000
    C80     C    0.53543   0.94585   0.21028   1.000
    C81     C    0.68655   0.41842   0.47746   1.000
    C82     C    0.05680   0.58384   0.26746   1.000
    C83     C    0.94404   0.20950   0.53504   1.000
    C84     C    0.31595   0.78873   0.73144   1.000
    C85     C    0.21011   0.53455   0.94522   1.000
    C86     C    0.78948   0.73194   0.31664   1.000
    C87     C    0.41161   0.46885   0.67996   1.000
    C88     C    0.59354   0.26962   0.05797   1.000
    C89     C    0.80415   0.31594   0.31484   1.000
    C90     C    0.75427   0.36970   0.37066   1.000
    C91     C    0.99838   0.49057   0.67480   1.000
    C92     C    0.99940   0.38487   0.63086   1.000
    C93     C    0.00256   0.68279   0.49259   1.000
    C94     C    0.00132   0.63191   0.38644   1.000
    C95     C    0.18534   0.50865   0.50700   1.000
    C96     C    0.24327   0.61418   0.61339   1.000
    C97     C    0.49054   0.99953   0.67943   1.000
    C98     C    0.38504   0.00001   0.63139   1.000
    C99     C    0.50887   0.18529   0.50927   1.000
    C100    C    0.61398   0.24410   0.61552   1.000
    C101    C    0.32165   0.81415   0.32182   1.000
    C102    C    0.37135   0.75755   0.37045   1.000
    C103    C    0.67529   0.99851   0.49083   1.000
    C104    C    0.63118   0.00033   0.38554   1.000
    C105    C    0.49013   0.67533   0.99746   1.000
    C106    C    0.38502   0.63090   0.99944   1.000
    C107    C    0.32347   0.32464   0.81741   1.000
    C108    C    0.36899   0.37008   0.75668   1.000
    C109    C    0.50953   0.50944   0.18856   1.000
    C110    C    0.61497   0.61465   0.24518   1.000
    C111    C    0.67768   0.49205   0.00107   1.000
    C112    C    0.63020   0.38647   0.00130   1.000
    C113    C    0.72869   0.44437   0.35340   1.000
    C114    C    0.09202   0.37721   0.65208   1.000
    C115    C    0.90873   0.55720   0.28739   1.000
    C116    C    0.26972   0.62162   0.71338   1.000
    C117    C    0.28554   0.90818   0.55665   1.000
    C118    C    0.71439   0.27237   0.62380   1.000
    C119    C    0.35099   0.72872   0.44233   1.000
    C120    C    0.65199   0.09322   0.37859   1.000
    C121    C    0.37813   0.65260   0.09257   1.000
    C122    C    0.44058   0.34892   0.72783   1.000
    C123    C    0.62261   0.71455   0.27107   1.000
    C124    C    0.55818   0.28620   0.90970   1.000
    C125    C    0.37719   0.09248   0.65188   1.000
    C126    C    0.44435   0.73049   0.35066   1.000
    C127    C    0.62117   0.27189   0.71558   1.000
    C128    C    0.56099   0.90892   0.28471   1.000
    C129    C    0.72949   0.35146   0.44534   1.000
    C130    C    0.09305   0.65072   0.37746   1.000
    C131    C    0.90768   0.28446   0.56041   1.000
    C132    C    0.27078   0.71434   0.62116   1.000
    C133    C    0.28439   0.55982   0.90800   1.000
    C134    C    0.71498   0.62201   0.27224   1.000
    C135    C    0.34890   0.44223   0.72833   1.000
    C136    C    0.65375   0.37867   0.09484   1.000
    O137    O    0.65394   0.43926   0.00119   1.000
    O138    O    0.72204   0.50940   0.01524   1.000
    O139    O    0.67301   0.52330   0.02888   1.000
    O140    O    0.65688   0.48560   0.95938   1.000
    O141    O    0.64197   0.38257   0.04807   1.000
    O142    O    0.59419   0.33634   0.95550   1.000
    O143    O    0.62364   0.32414   0.07641   1.000
    O144    O    0.56346   0.23972   0.00169   1.000
    O145    O    0.32290   0.62208   0.07551   1.000
    O146    O    0.25341   0.59257   0.08789   1.000
    O147    O    0.23889   0.56306   0.00184   1.000
    O148    O    0.52286   0.71245   0.03691   1.000
    O149    O    0.43963   0.70200   0.17095   1.000
    O150    O    0.38158   0.64175   0.04600   1.000
    O151    O    0.70271   0.43976   0.17403   1.000
    O152    O    0.48936   0.49181   0.14348   1.000
    O153    O    0.50752   0.91735   0.16651   1.000
    O154    O    0.91448   0.49599   0.16900   1.000
    O155    O    0.51668   0.47862   0.19756   1.000
    O156    O    0.48032   0.51590   0.20124   1.000
    O157    O    0.56225   0.56205   0.21687   1.000
    O158    O    0.56336   0.00242   0.23910   1.000
    O159    O    0.54821   0.92739   0.24750   1.000
    O160    O    0.00021   0.55514   0.23978   1.000
    O161    O    0.92618   0.54182   0.24974   1.000
    O162    O    0.77543   0.28864   0.27019   1.000
    O163    O    0.08552   0.58272   0.25262   1.000
    O164    O    0.59196   0.08829   0.25357   1.000
    O165    O    0.61879   0.66460   0.25812   1.000
    O166    O    0.66497   0.61833   0.25871   1.000
    O167    O    0.56186   0.73297   0.26020   1.000
    O168    O    0.53105   0.83016   0.26702   1.000
    O169    O    0.47273   0.74094   0.29999   1.000
    O170    O    0.73332   0.56144   0.26273   1.000
    O171    O    0.83020   0.52903   0.27030   1.000
    O172    O    0.74018   0.47261   0.30330   1.000
    O173    O    0.27681   0.78783   0.29422   1.000
    O174    O    0.07492   0.61728   0.32246   1.000
    O175    O    0.62164   0.07611   0.32325   1.000
    O176    O    0.67767   0.75164   0.29347   1.000
    O177    O    0.75223   0.67697   0.29444   1.000
    O178    O    0.34003   0.82606   0.29819   1.000
    O179    O    0.59608   0.95463   0.33513   1.000
    O180    O    0.95503   0.59456   0.33691   1.000
    O181    O    0.84128   0.34689   0.31972   1.000
    O182    O    0.81561   0.29143   0.33212   1.000
    O183    O    0.77921   0.34282   0.34275   1.000
    O184    O    0.76110   0.76033   0.31626   1.000
    O185    O    0.74709   0.83209   0.32939   1.000
    O186    O    0.83290   0.74621   0.33066   1.000
    O187    O    0.34650   0.78585   0.34614   1.000
    O188    O    0.32835   0.85146   0.35432   1.000
    O189    O    0.40785   0.74402   0.36056   1.000
    O190    O    0.45830   0.70671   0.38225   1.000
    O191    O    0.74148   0.40703   0.36203   1.000
    O192    O    0.70737   0.45991   0.38719   1.000
    O193    O    0.36117   0.74313   0.40639   1.000
    O194    O    0.74188   0.36058   0.40800   1.000
    O195    O    0.04719   0.64132   0.38195   1.000
    O196    O    0.17163   0.70062   0.43832   1.000
    O197    O    0.64158   0.04678   0.38207   1.000
    O198    O    0.70111   0.17155   0.44009   1.000
    O199    O    0.65323   0.99942   0.43819   1.000
    O200    O    0.00194   0.65735   0.43952   1.000
    O201    O    0.50182   0.66896   0.41423   1.000
    O202    O    0.44360   0.68237   0.44197   1.000
    O203    O    0.67293   0.50575   0.42250   1.000
    O204    O    0.68630   0.44694   0.44922   1.000
    O205    O    0.38296   0.70527   0.45622   1.000
    O206    O    0.30060   0.73961   0.47076   1.000
    O207    O    0.70802   0.38494   0.46140   1.000
    O208    O    0.73985   0.30067   0.47346   1.000
    O209    O    0.19699   0.51496   0.47752   1.000
    O210    O    0.51440   0.20015   0.48104   1.000
    O211    O    0.49386   0.14070   0.48794   1.000
    O212    O    0.16797   0.91565   0.49720   1.000
    O213    O    0.14030   0.49085   0.48812   1.000
    O214    O    0.41516   0.66726   0.49922   1.000
    O215    O    0.67388   0.41967   0.50805   1.000
    O216    O    0.96107   0.67432   0.48518   1.000
    O217    O    0.91534   0.16582   0.50704   1.000
    O218    O    0.68421   0.96457   0.48555   1.000
    O219    O    0.64533   0.99253   0.50553   1.000
    O220    O    0.71312   0.03742   0.52336   1.000
    O221    O    0.03021   0.72763   0.51628   1.000
    O222    O    0.01735   0.66632   0.51901   1.000
    O223    O    0.26787   0.82934   0.52792   1.000
    O224    O    0.26049   0.73243   0.56017   1.000
    O225    O    0.82895   0.26717   0.53099   1.000
    O226    O    0.73230   0.26112   0.56269   1.000
    O227    O    0.19485   0.47793   0.51417   1.000
    O228    O    0.21430   0.56141   0.56020   1.000
    O229    O    0.47655   0.19095   0.51624   1.000
    O230    O    0.56143   0.21469   0.56240   1.000
    O231    O    0.24835   0.92627   0.54206   1.000
    O232    O    0.23928   0.00093   0.55672   1.000
    O233    O    0.92586   0.24698   0.54773   1.000
    O234    O    0.00063   0.23798   0.56318   1.000
    O235    O    0.33529   0.95409   0.59402   1.000
    O236    O    0.95354   0.33466   0.59564   1.000
    O237    O    0.25294   0.08661   0.58575   1.000
    O238    O    0.32229   0.07499   0.61892   1.000
    O239    O    0.08639   0.25188   0.59207   1.000
    O240    O    0.07462   0.32183   0.62170   1.000
    O241    O    0.25702   0.66426   0.61728   1.000
    O242    O    0.25650   0.61790   0.66338   1.000
    O243    O    0.66418   0.25823   0.61966   1.000
    O244    O    0.61758   0.25799   0.66555   1.000
    O245    O    0.99632   0.50704   0.64633   1.000
    O246    O    0.29337   0.75154   0.67630   1.000
    O247    O    0.75158   0.29595   0.67915   1.000
    O248    O    0.51109   0.00293   0.65487   1.000
    O249    O    0.04571   0.38104   0.64147   1.000
    O250    O    0.99889   0.43772   0.65283   1.000
    O251    O    0.38111   0.04624   0.64164   1.000
    O252    O    0.43779   0.99977   0.65541   1.000
    O253    O    0.49649   0.41101   0.66450   1.000
    O254    O    0.41153   0.49769   0.66511   1.000
    O255    O    0.43805   0.17098   0.70146   1.000
    O256    O    0.17031   0.43873   0.70116   1.000
    O257    O    0.96240   0.48483   0.68029   1.000
    O258    O    0.03583   0.52199   0.71454   1.000
    O259    O    0.48336   0.96116   0.68035   1.000
    O260    O    0.51947   0.03441   0.72151   1.000
    O261    O    0.43975   0.44021   0.67979   1.000
    O262    O    0.45423   0.38025   0.70372   1.000
    O263    O    0.38025   0.45554   0.70415   1.000
    O264    O    0.25917   0.56094   0.73181   1.000
    O265    O    0.29251   0.67672   0.75072   1.000
    O266    O    0.56005   0.26069   0.73331   1.000
    O267    O    0.67636   0.29560   0.75322   1.000
    O268    O    0.46975   0.29920   0.73943   1.000
    O269    O    0.40478   0.35950   0.74225   1.000
    O270    O    0.29875   0.47124   0.73928   1.000
    O271    O    0.35894   0.40616   0.74251   1.000
    O272    O    0.33008   0.83220   0.74595   1.000
    O273    O    0.31562   0.76028   0.75975   1.000
    O274    O    0.83236   0.33417   0.74920   1.000
    O275    O    0.76016   0.31943   0.76268   1.000
    O276    O    0.26650   0.53004   0.82912   1.000
    O277    O    0.52855   0.26784   0.83037   1.000
    O278    O    0.34623   0.34736   0.78705   1.000
    O279    O    0.32903   0.74618   0.83149   1.000
    O280    O    0.74585   0.33398   0.83438   1.000
    O281    O    0.31596   0.28239   0.80459   1.000
    O282    O    0.28475   0.32462   0.81059   1.000
    O283    O    0.35242   0.34945   0.86216   1.000
    O284    O    0.16644   0.50626   0.91673   1.000
    O285    O    0.50462   0.16634   0.91701   1.000
    O286    O    0.24725   0.54719   0.92661   1.000
    O287    O    0.33470   0.59536   0.95372   1.000
    O288    O    0.54578   0.24801   0.92756   1.000
    O289    O    0.48510   0.68559   0.96441   1.000
    O290    O    0.50427   0.64499   0.99003   1.000
    O291    O    0.43757   0.65312   0.99845   1.000
loop_
    _geom_bond_atom_site_label_1
    _geom_bond_atom_site_label_2
    _geom_bond_distance
    _geom_bond_site_symmetry_2
    _ccdc_geom_bond_type
    C111   O137      0.74490      .   S
    C112   O137      0.74490      .   S
    C111   O138      0.55034      .   S
    C63    O138      0.55034      .   S
    C111   O139      0.54953      .   S
    C64    O139      0.54953      .   S
    C111   O140      0.54803  1_554   S
    C62    O140      0.54803      .   S
    C112   O141      0.68315      .   S
    C136   O141      0.68315      .   S
    C112   O142      0.67731  1_554   S
    C124   O142      0.67731      .   S
    C88    O143      0.67835      .   S
    C136   O143      0.67835      .   S
    C88    O144      0.68310      .   S
    C76    O144      0.68310  1_556   S
    C73    O145      0.69261      .   S
    C121   O145      0.69261      .   S
    C73    O146      0.54196      .   S
    C14    O146      0.54196      .   S
    C73    O147      0.68632      .   S
    C85    O147      0.68632  1_556   S
    C55    O148      0.54824      .   S
    C105   O148      0.54824  1_556   S
    C121   O149      1.00216      .   S
    C4     O149      1.00216      .   S
    C121   O150      0.67746      .   S
    C106   O150      0.67746  1_556   S
    C136   O151      1.00758      .   S
    C0     O151      1.00758      .   S
    C60    O152      0.55061      .   S
    C109   O152      0.55061      .   S
    C21    O153      0.54210      .   S
    C80    O153      0.54210      .   S
    C8     O154      0.54203      .   S
    C67    O154      0.54203      .   S
    C109   O155      0.54846      .   S
    C59    O155      0.54846      .   S
    C109   O156      0.54870      .   S
    C61    O156      0.54870      .   S
    C109   O157      0.74536      .   S
    C110   O157      0.74536      .   S
    C80    O158      0.68646  1_565   S
    C72    O158      0.68646      .   S
    C80    O159      0.69280      .   S
    C128   O159      0.69280      .   S
    C67    O160      0.68670  1_655   S
    C82    O160      0.68670      .   S
    C67    O161      0.69267      .   S
    C115   O161      0.69267      .   S
    C29    O162      0.55071      .   S
    C89    O162      0.55071      .   S
    C23    O163      0.54214      .   S
    C82    O163      0.54214      .   S
    C13    O164      0.54198      .   S
    C72    O164      0.54198      .   S
    C110   O165      0.67720      .   S
    C123   O165      0.67720      .   S
    C110   O166      0.67791      .   S
    C134   O166      0.67791      .   S
    C4     O167      1.00325      .   S
    C123   O167      1.00325      .   S
    C4     O168      1.00226      .   S
    C128   O168      1.00226      .   S
    C4     O169      1.00371      .   S
    C126   O169      1.00371      .   S
    C0     O170      1.00140      .   S
    C134   O170      1.00140      .   S
    C0     O171      1.00228      .   S
    C115   O171      1.00228      .   S
    C0     O172      0.99891      .   S
    C113   O172      0.99891      .   S
    C47    O173      0.55014      .   S
    C101   O173      0.55014      .   S
    C82    O174      0.69231      .   S
    C130   O174      0.69231      .   S
    C72    O175      0.69268      .   S
    C120   O175      0.69268      .   S
    C123   O176      0.69261      .   S
    C75    O176      0.69261      .   S
    C134   O177      0.69269      .   S
    C86    O177      0.69269      .   S
    C48    O178      0.54802      .   S
    C101   O178      0.54802      .   S
    C128   O179      0.67766      .   S
    C104   O179      0.67766  1_545   S
    C115   O180      0.67780      .   S
    C94    O180      0.67780  1_455   S
    C89    O181      0.55000      .   S
    C31    O181      0.55000      .   S
    C89    O182      0.54792      .   S
    C30    O182      0.54792      .   S
    C89    O183      0.74526      .   S
    C90    O183      0.74526      .   S
    C75    O184      0.68642      .   S
    C86    O184      0.68642      .   S
    C75    O185      0.54217      .   S
    C16    O185      0.54217      .   S
    C86    O186      0.54206      .   S
    C27    O186      0.54206      .   S
    C101   O187      0.74570      .   S
    C102   O187      0.74570      .   S
    C101   O188      0.54969      .   S
    C49    O188      0.54969      .   S
    C126   O189      0.67748      .   S
    C102   O189      0.67748      .   S
    C126   O190      0.69268      .   S
    C78    O190      0.69268      .   S
    C113   O191      0.67743      .   S
    C90    O191      0.67743      .   S
    C113   O192      0.69253      .   S
    C65    O192      0.69253      .   S
    C102   O193      0.67767      .   S
    C119   O193      0.67767      .   S
    C90    O194      0.67707      .   S
    C129   O194      0.67707      .   S
    C130   O195      0.67744      .   S
    C94    O195      0.67744      .   S
    C130   O196      1.00228      .   S
    C2     O196      1.00228      .   S
    C120   O197      0.67736      .   S
    C104   O197      0.67736      .   S
    C120   O198      1.00194      .   S
    C3     O198      1.00194      .   S
    C104   O199      0.74545  1_545   S
    C103   O199      0.74545      .   S
    C94    O200      0.74551      .   S
    C93    O200      0.74551      .   S
    C78    O201      0.54208      .   S
    C19    O201      0.54208      .   S
    C78    O202      0.68652      .   S
    C71    O202      0.68652      .   S
    C65    O203      0.54223      .   S
    C6     O203      0.54223      .   S
    C65    O204      0.68648      .   S
    C81    O204      0.68648      .   S
    C119   O205      0.69242      .   S
    C71    O205      0.69242      .   S
    C119   O206      1.00194      .   S
    C2     O206      1.00194      .   S
    C129   O207      0.69295      .   S
    C81    O207      0.69295      .   S
    C129   O208      1.00322      .   S
    C3     O208      1.00322      .   S
    C39    O209      0.54368      .   S
    C95    O209      0.54368      .   S
    C45    O210      0.54961      .   S
    C99    O210      0.54961      .   S
    C44    O211      0.55055      .   S
    C99    O211      0.55055      .   S
    C10    O212      0.54208      .   S
    C69    O212      0.54208      .   S
    C40    O213      0.55095      .   S
    C95    O213      0.55095      .   S
    C71    O214      0.54216      .   S
    C12    O214      0.54216      .   S
    C81    O215      0.54215      .   S
    C22    O215      0.54215      .   S
    C35    O216      0.54824      .   S
    C93    O216      0.54824  1_455   S
    C24    O217      0.54212      .   S
    C83    O217      0.54212      .   S
    C51    O218      0.54901      .   S
    C103   O218      0.54901      .   S
    C103   O219      0.55056      .   S
    C52    O219      0.55056      .   S
    C103   O220      0.54828  1_565   S
    C50    O220      0.54828      .   S
    C93    O221      0.54934      .   S
    C36    O221      0.54934      .   S
    C93    O222      0.55030      .   S
    C37    O222      0.55030      .   S
    C2     O223      1.00376      .   S
    C117   O223      1.00376      .   S
    C2     O224      1.00383      .   S
    C132   O224      1.00383      .   S
    C3     O225      1.00334      .   S
    C131   O225      1.00334      .   S
    C3     O226      1.00277      .   S
    C118   O226      1.00277      .   S
    C95    O227      0.55050      .   S
    C38    O227      0.55050      .   S
    C95    O228      0.74820      .   S
    C96    O228      0.74820      .   S
    C99    O229      0.54829      .   S
    C46    O229      0.54829      .   S
    C99    O230      0.74551      .   S
    C100   O230      0.74551      .   S
    C69    O231      0.69258      .   S
    C117   O231      0.69258      .   S
    C69    O232      0.68654  1_565   S
    C77    O232      0.68654      .   S
    C83    O233      0.69260      .   S
    C131   O233      0.69260      .   S
    C83    O234      0.68667  1_655   S
    C66    O234      0.68667      .   S
    C117   O235      0.67760      .   S
    C98    O235      0.67760  1_545   S
    C131   O236      0.67755      .   S
    C92    O236      0.67755      .   S
    C18    O237      0.54216      .   S
    C77    O237      0.54216      .   S
    C77    O238      0.69258      .   S
    C125   O238      0.69258      .   S
    C66    O239      0.54209      .   S
    C7     O239      0.54209      .   S
    C66    O240      0.69262      .   S
    C114   O240      0.69262      .   S
    C96    O241      0.67784      .   S
    C132   O241      0.67784      .   S
    C96    O242      0.67752      .   S
    C116   O242      0.67752      .   S
    C100   O243      0.67738      .   S
    C118   O243      0.67738      .   S
    C100   O244      0.67763      .   S
    C127   O244      0.67763      .   S
    C33    O245      0.55050      .   S
    C91    O245      0.55050      .   S
    C132   O246      0.69256      .   S
    C84    O246      0.69256      .   S
    C118   O247      0.69263      .   S
    C70    O247      0.69263      .   S
    C41    O248      0.55061      .   S
    C97    O248      0.55061  1_565   S
    C92    O249      0.67739  1_655   S
    C114   O249      0.67739      .   S
    C92    O250      0.74539      .   S
    C91    O250      0.74539      .   S
    C98    O251      0.67760      .   S
    C125   O251      0.67760      .   S
    C98    O252      0.74540  1_545   S
    C97    O252      0.74540      .   S
    C15    O253      0.54211      .   S
    C74    O253      0.54211      .   S
    C28    O254      0.54205      .   S
    C87    O254      0.54205      .   S
    C125   O255      1.00159      .   S
    C5     O255      1.00159      .   S
    C114   O256      1.00211      .   S
    C1     O256      1.00211      .   S
    C91    O257      0.54888      .   S
    C32    O257      0.54888      .   S
    C91    O258      0.54848  1_655   S
    C34    O258      0.54848      .   S
    C97    O259      0.54849      .   S
    C42    O259      0.54849      .   S
    C97    O260      0.54861  1_565   S
    C43    O260      0.54861      .   S
    C74    O261      0.68647      .   S
    C87    O261      0.68647      .   S
    C74    O262      0.69278      .   S
    C122   O262      0.69278      .   S
    C87    O263      0.69260      .   S
    C135   O263      0.69260      .   S
    C116   O264      1.00311      .   S
    C1     O264      1.00311      .   S
    C116   O265      0.69263      .   S
    C68    O265      0.69263      .   S
    C127   O266      1.00184      .   S
    C5     O266      1.00184      .   S
    C127   O267      0.69262      .   S
    C79    O267      0.69262      .   S
    C122   O268      1.00274      .   S
    C5     O268      1.00274      .   S
    C122   O269      0.67783      .   S
    C108   O269      0.67783      .   S
    C135   O270      1.00419      .   S
    C1     O270      1.00419      .   S
    C135   O271      0.67734      .   S
    C108   O271      0.67734      .   S
    C84    O272      0.54209      .   S
    C25    O272      0.54209      .   S
    C84    O273      0.68643      .   S
    C68    O273      0.68643      .   S
    C70    O274      0.54217      .   S
    C11    O274      0.54217      .   S
    C70    O275      0.68650      .   S
    C79    O275      0.68650      .   S
    C1     O276      1.00188      .   S
    C133   O276      1.00188      .   S
    C5     O277      1.00651      .   S
    C124   O277      1.00651      .   S
    C108   O278      0.74529      .   S
    C107   O278      0.74529      .   S
    C68    O279      0.54215      .   S
    C9     O279      0.54215      .   S
    C79    O280      0.54149      .   S
    C20    O280      0.54149      .   S
    C56    O281      0.54883      .   S
    C107   O281      0.54883      .   S
    C57    O282      0.54831      .   S
    C107   O282      0.54831      .   S
    C107   O283      0.55060      .   S
    C58    O283      0.55060      .   S
    C26    O284      0.54217      .   S
    C85    O284      0.54217      .   S
    C17    O285      0.54095      .   S
    C76    O285      0.54095      .   S
    C133   O286      0.69312      .   S
    C85    O286      0.69312      .   S
    C133   O287      0.67773      .   S
    C106   O287      0.67773      .   S
    C124   O288      0.69785      .   S
    C76    O288      0.69785      .   S
    C53    O289      0.54876      .   S
    C105   O289      0.54876      .   S
    C54    O290      0.55054      .   S
    C105   O290      0.55054      .   S
    C105   O291      0.74554      .   S
    C106   O291      0.74554      .   S
