# CIF file generated by openbabel 2.4.90, see http://openbabel.sf.net
data_I
_chemical_name_common ''
_cell_length_a 12.194
_cell_length_b 12.182
_cell_length_c 23.169
_cell_angle_alpha 90
_cell_angle_beta 90
_cell_angle_gamma 90.001
_space_group_name_H-M_alt 'P 1'
_space_group_name_Hall 'P 1'
loop_
    _symmetry_equiv_pos_as_xyz
    x,y,z
loop_
    _atom_site_label
    _atom_site_type_symbol
    _atom_site_fract_x
    _atom_site_fract_y
    _atom_site_fract_z
    _atom_site_occupancy
    N0      N    0.49998   0.50000   0.24996   1.000
    N1      N    0.49997   0.50000   0.75002   1.000
    Zr2     Zr   0.49998   1.00000   0.50000   1.000
    Zr3     Zr   1.00000   0.50001   0.00000   1.000
    O4      O    0.49998   0.13936   0.42999   1.000
    O5      O    0.49998   0.86064   0.42999   1.000
    O6      O    0.13935   0.50000   0.06999   1.000
    O7      O    0.86064   0.50000   0.06999   1.000
    O8      O    0.49998   0.86064   0.57001   1.000
    O9      O    0.49998   0.13936   0.57001   1.000
    O10     O    0.86063   0.50000   0.93000   1.000
    O11     O    0.13934   0.50000   0.93000   1.000
loop_
    _geom_bond_atom_site_label_1
    _geom_bond_atom_site_label_2
    _geom_bond_distance
    _geom_bond_site_symmetry_2
    _ccdc_geom_bond_type
    N0     O4        6.05800      .   S
    Zr2    O4        2.34809  1_565   S
    N0     O5        6.05796      .   S
    Zr2    O5        2.34807      .   S
    N0     O6        6.06009      .   S
    Zr3    O6        2.34885  1_655   S
    N0     O7        6.06026      .   S
    Zr3    O7        2.34895      .   S
    N1     O8        6.05777      .   S
    Zr2    O8        2.34798      .   S
    N1     O9        6.05781      .   S
    Zr2    O9        2.34800  1_565   S
    N1     O10       6.06052      .   S
    Zr3    O10       2.34905  1_554   S
    N1     O11       6.06017      .   S
    Zr3    O11       2.34897  1_654   S
