# CIF file generated by openbabel 2.4.90, see http://openbabel.sf.net
data_I
_chemical_name_common ''
_cell_length_a 12.194
_cell_length_b 12.182
_cell_length_c 23.169
_cell_angle_alpha 90
_cell_angle_beta 90
_cell_angle_gamma 90.001
_space_group_name_H-M_alt 'P 1'
_space_group_name_Hall 'P 1'
loop_
    _symmetry_equiv_pos_as_xyz
    x,y,z
loop_
    _atom_site_label
    _atom_site_type_symbol
    _atom_site_fract_x
    _atom_site_fract_y
    _atom_site_fract_z
    _atom_site_occupancy
    Zr0     Zr   0.00000   0.60043   0.00000   1.000
    Zr1     Zr   1.00000   0.39959   0.00000   1.000
    Zr2     Zr   0.39965   0.99999   0.50000   1.000
    Zr3     Zr   0.60032   0.00000   0.50000   1.000
    O4      O    1.00000   0.50001   0.00000   1.000
    O5      O    0.49998   1.00000   0.50000   1.000
    N6      N    0.49998   0.50000   0.24996   1.000
    O7      O    0.45153   0.72128   0.35997   1.000
    O8      O    0.54844   0.27872   0.35997   1.000
    O9      O    0.27870   0.54850   0.13998   1.000
    O10     O    0.72128   0.45150   0.13998   1.000
    O11     O    0.27869   0.45150   0.13998   1.000
    O12     O    0.72128   0.54850   0.13998   1.000
    O13     O    0.45153   0.27872   0.35997   1.000
    O14     O    0.54844   0.72128   0.35997   1.000
    N15     N    0.49997   0.50000   0.75002   1.000
    O16     O    0.72127   0.54850   0.86001   1.000
    O17     O    0.27869   0.45150   0.85999   1.000
    O18     O    0.54843   0.72128   0.64001   1.000
    O19     O    0.45152   0.27872   0.64001   1.000
    O20     O    0.54843   0.27872   0.64001   1.000
    O21     O    0.45152   0.72128   0.64001   1.000
    O22     O    0.72127   0.45150   0.86001   1.000
    O23     O    0.27869   0.54850   0.86001   1.000
loop_
    _geom_bond_atom_site_label_1
    _geom_bond_atom_site_label_2
    _geom_bond_distance
    _geom_bond_site_symmetry_2
    _ccdc_geom_bond_type
    Zr0    O4        1.22332  1_455   S
    Zr1    O4        1.22332      .   S
    Zr2    O5        1.22348      .   S
    Zr3    O5        1.22348  1_545   S
    N6     O7        3.75666      .   S
    Zr2    O7        4.73855      .   S
    N6     O8        3.75668      .   S
    Zr3    O8        4.73859      .   S
    N6     O9        3.75799      .   S
    Zr0    O9        4.74009      .   S
    N6     O10       3.75806      .   S
    Zr1    O10       4.74029      .   S
    N6     O11       3.75799      .   S
    Zr1    O11       4.74008  1_655   S
    N6     O12       3.75807      .   S
    Zr0    O12       4.74030  1_455   S
    N6     O13       3.75669      .   S
    Zr2    O13       4.73860  1_565   S
    N6     O14       3.75667      .   S
    Zr3    O14       4.73855  1_545   S
    N15    O16       3.75822      .   S
    Zr0    O16       4.74049  1_454   S
    N15    O17       3.75780      .   S
    Zr1    O17       4.74048  1_654   S
    N15    O18       3.75657      .   S
    Zr3    O18       4.73838  1_545   S
    N15    O19       3.75658      .   S
    Zr2    O19       4.73841  1_565   S
    N15    O20       3.75659      .   S
    Zr3    O20       4.73842      .   S
    N15    O21       3.75656      .   S
    Zr2    O21       4.73836      .   S
    N15    O22       3.75821      .   S
    Zr1    O22       4.74048  1_554   S
    N15    O23       3.75812      .   S
    Zr0    O23       4.74018  1_554   S
