# CIF file generated by openbabel 2.4.90, see http://openbabel.sf.net
data_I
_chemical_name_common ''
_cell_length_a 12.194
_cell_length_b 12.182
_cell_length_c 23.169
_cell_angle_alpha 90
_cell_angle_beta 90
_cell_angle_gamma 90.001
_space_group_name_H-M_alt 'P 1'
_space_group_name_Hall 'P 1'
loop_
    _symmetry_equiv_pos_as_xyz
    x,y,z
loop_
    _atom_site_label
    _atom_site_type_symbol
    _atom_site_fract_x
    _atom_site_fract_y
    _atom_site_fract_z
    _atom_site_occupancy
    N0      N    0.49998   0.50000   0.24996   1.000
    N1      N    0.49997   0.50000   0.75002   1.000
    Zr2     Zr   0.49998   1.00000   0.50000   1.000
    O3      O    0.52421   0.13936   0.42999   1.000
    O4      O    0.52421   0.86064   0.57001   1.000
    O5      O    0.52421   0.13936   0.57001   1.000
    O6      O    0.52421   0.86064   0.42999   1.000
    O7      O    0.47575   0.13936   0.42999   1.000
    O8      O    0.47575   0.86064   0.42999   1.000
    O9      O    0.47575   0.13936   0.57001   1.000
    O10     O    0.47575   0.86064   0.57001   1.000
    Zr11    Zr   1.00000   0.50001   0.00000   1.000
    O12     O    0.13935   0.47575   0.06999   1.000
    O13     O    0.86063   0.47575   0.93000   1.000
    O14     O    0.13934   0.47575   0.92999   1.000
    O15     O    0.86064   0.47576   0.06999   1.000
    O16     O    0.86064   0.52425   0.06999   1.000
    O17     O    0.86063   0.52425   0.93000   1.000
    O18     O    0.13934   0.52425   0.93000   1.000
    O19     O    0.13935   0.52425   0.06999   1.000
loop_
    _geom_bond_atom_site_label_1
    _geom_bond_atom_site_label_2
    _geom_bond_distance
    _geom_bond_site_symmetry_2
    _ccdc_geom_bond_type
    Zr2    O3        2.36660  1_565   S
    N0     O3        6.06520      .   S
    Zr2    O4        2.36649      .   S
    N1     O4        6.06497      .   S
    Zr2    O5        2.36651  1_565   S
    N1     O5        6.06501      .   S
    Zr2    O6        2.36658      .   S
    N0     O6        6.06516      .   S
    Zr2    O7        2.36660  1_565   S
    N0     O7        6.06520      .   S
    Zr2    O8        2.36658      .   S
    N0     O8        6.06515      .   S
    Zr2    O9        2.36651  1_565   S
    N1     O9        6.06500      .   S
    Zr2    O10       2.36649      .   S
    N1     O10       6.06496      .   S
    Zr11   O12       2.36735  1_655   S
    N0     O12       6.06728      .   S
    Zr11   O13       2.36756  1_554   S
    N1     O13       6.06771      .   S
    Zr11   O14       2.36756  1_654   S
    N1     O14       6.06729      .   S
    Zr11   O15       2.36746      .   S
    N0     O15       6.06746      .   S
    Zr11   O16       2.36745      .   S
    N0     O16       6.06746      .   S
    Zr11   O17       2.36755  1_554   S
    N1     O17       6.06772      .   S
    Zr11   O18       2.36739  1_654   S
    N1     O18       6.06745      .   S
    Zr11   O19       2.36735  1_655   S
    N0     O19       6.06728      .   S
