# CIF file generated by openbabel 2.4.90, see http://openbabel.sf.net
data_I
_chemical_name_common ''
_cell_length_a 14.004
_cell_length_b 15.377
_cell_length_c 15.348
_cell_angle_alpha 88.196
_cell_angle_beta 85.279
_cell_angle_gamma 85.566
_space_group_name_H-M_alt 'P 1'
_space_group_name_Hall 'P 1'
loop_
    _symmetry_equiv_pos_as_xyz
    x,y,z
loop_
    _atom_site_label
    _atom_site_type_symbol
    _atom_site_fract_x
    _atom_site_fract_y
    _atom_site_fract_z
    _atom_site_occupancy
    Zn0     Zn   0.68801   0.85201   0.61468   1.000
    Zn1     Zn   0.10898   0.16264   0.40013   1.000
    Zn2     Zn   0.31200   0.14800   0.38533   1.000
    Zn3     Zn   0.89103   0.83737   0.59988   1.000
    C4      C    0.78415   0.84326   0.77660   1.000
    C5      C    0.79544   0.84608   0.43585   1.000
    C6      C    0.77978   0.01638   0.60572   1.000
    C7      C    0.79593   0.67390   0.60859   1.000
    C8      C    0.21587   0.15676   0.22341   1.000
    C9      C    0.20458   0.15393   0.56416   1.000
    C10     C    0.22024   0.98363   0.39429   1.000
    C11     C    0.20409   0.32611   0.39142   1.000
    O12     O    0.69993   0.98588   0.59309   1.000
    O13     O    0.85861   0.97125   0.61482   1.000
    O14     O    0.86263   0.81916   0.73322   1.000
    O15     O    0.70477   0.86692   0.74433   1.000
    O16     O    0.71686   0.71749   0.63022   1.000
    O17     O    0.87565   0.70577   0.58467   1.000
    O18     O    0.71565   0.83792   0.48056   1.000
    O19     O    0.87575   0.85559   0.46667   1.000
    O20     O    0.30009   0.01414   0.40692   1.000
    O21     O    0.14140   0.02876   0.38519   1.000
    O22     O    0.13738   0.18084   0.26679   1.000
    O23     O    0.29525   0.13309   0.25568   1.000
    O24     O    0.28316   0.28252   0.36979   1.000
    O25     O    0.12437   0.29424   0.41530   1.000
    O26     O    0.28437   0.16209   0.51945   1.000
    O27     O    0.12427   0.14442   0.53334   1.000
loop_
    _geom_bond_atom_site_label_1
    _geom_bond_atom_site_label_2
    _geom_bond_distance
    _geom_bond_site_symmetry_2
    _ccdc_geom_bond_type
    C8     O23       1.27675      .   S
    C8     O22       1.27306      .   S
    O23    Zn2       2.04476      .   S
    O22    Zn1       2.06684      .   S
    O24    Zn2       2.08675      .   S
    O24    C11       1.27453      .   S
    O21    C10       1.27306  1_545   S
    O21    Zn1       2.08929      .   S
    Zn2    O20       2.09180      .   S
    Zn2    O26       2.07799      .   S
    C11    O25       1.27551      .   S
    C10    O20       1.27690  1_565   S
    Zn1    O25       2.07378      .   S
    Zn1    O27       2.08112      .   S
    C5     O19       1.27569      .   S
    C5     O18       1.27480      .   S
    O19    Zn3       2.08112      .   S
    O18    Zn0       2.07799      .   S
    O26    C9        1.27482      .   S
    O27    C9        1.27568      .   S
    O17    Zn3       2.07387      .   S
    O17    C7        1.27566      .   S
    O12    C6        1.27687  1_565   S
    O12    Zn0       2.09182      .   S
    Zn3    O13       2.08929      .   S
    Zn3    O14       2.06685      .   S
    C6     O13       1.27305  1_545   S
    C7     O16       1.27451      .   S
    Zn0    O16       2.08675      .   S
    Zn0    O15       2.04475      .   S
    O14    C4        1.27308      .   S
    O15    C4        1.27675      .   S
    Zn3    Zn0       2.82545      .   S
    Zn1    Zn2       2.82545      .   S
