# CIF file generated by openbabel 2.4.90, see http://openbabel.sf.net
data_I
_chemical_name_common ''
_cell_length_a 14.004
_cell_length_b 15.377
_cell_length_c 15.348
_cell_angle_alpha 88.196
_cell_angle_beta 85.279
_cell_angle_gamma 85.566
_space_group_name_H-M_alt 'P 1'
_space_group_name_Hall 'P 1'
loop_
    _symmetry_equiv_pos_as_xyz
    x,y,z
loop_
    _atom_site_label
    _atom_site_type_symbol
    _atom_site_fract_x
    _atom_site_fract_y
    _atom_site_fract_z
    _atom_site_occupancy
    C0      C    0.78415   0.84326   0.77660   1.000
    C1      C    0.79544   0.84608   0.43585   1.000
    C2      C    0.77978   0.01638   0.60572   1.000
    C3      C    0.79593   0.67390   0.60859   1.000
    C4      C    0.21587   0.15676   0.22341   1.000
    C5      C    0.20458   0.15393   0.56416   1.000
    C6      C    0.22024   0.98363   0.39429   1.000
    C7      C    0.20409   0.32611   0.39142   1.000
