# CIF file generated by openbabel 2.4.90, see http://openbabel.sf.net
data_I
_chemical_name_common ''
_cell_length_a 14.678
_cell_length_b 21.376
_cell_length_c 21.376
_cell_angle_alpha 83.236
_cell_angle_beta 69.927
_cell_angle_gamma 69.929
_space_group_name_H-M_alt 'P 1'
_space_group_name_Hall 'P 1'
loop_
    _symmetry_equiv_pos_as_xyz
    x,y,z
loop_
    _atom_site_label
    _atom_site_type_symbol
    _atom_site_fract_x
    _atom_site_fract_y
    _atom_site_fract_z
    _atom_site_occupancy
    Ca0     Ca   0.06250   0.23090   0.51910   1.000
    Ca1     Ca   0.06240   0.73109   0.01916   1.000
    Ca2     Ca   0.06242   0.73112   0.51888   1.000
    Ca3     Ca   0.56254   0.23096   0.01890   1.000
    Ca4     Ca   0.56249   0.23090   0.51917   1.000
    Ca5     Ca   0.56240   0.73109   0.01916   1.000
    Ca6     Ca   0.56241   0.73112   0.51888   1.000
    Ca7     Ca   0.31251   0.26890   0.48108   1.000
    Ca8     Ca   0.31253   0.26893   0.98088   1.000
    Ca9     Ca   0.31249   0.76913   0.48082   1.000
    Ca10    Ca   0.31250   0.76908   0.98115   1.000
    Ca11    Ca   0.81251   0.26890   0.48108   1.000
    Ca12    Ca   0.81252   0.26893   0.98088   1.000
    Ca13    Ca   0.81248   0.76913   0.48082   1.000
    Ca14    Ca   0.81249   0.76908   0.98115   1.000
    Ca15    Ca   0.41846   0.01921   0.26888   1.000
    Ca16    Ca   0.41851   0.01887   0.76912   1.000
    Ca17    Ca   0.41860   0.51891   0.26893   1.000
    Ca18    Ca   0.41835   0.51922   0.76907   1.000
    Ca19    Ca   0.91846   0.01921   0.26888   1.000
    Ca20    Ca   0.91851   0.01886   0.76912   1.000
    Ca21    Ca   0.91859   0.51891   0.26892   1.000
    Ca22    Ca   0.91834   0.51922   0.76907   1.000
    Ca23    Ca   0.20672   0.48084   0.23088   1.000
    Ca24    Ca   0.20647   0.48111   0.73110   1.000
    Ca25    Ca   0.20653   0.98111   0.23089   1.000
    Ca26    Ca   0.20659   0.98084   0.73112   1.000
    Ca27    Ca   0.70672   0.48084   0.23088   1.000
    Ca28    Ca   0.70647   0.48111   0.73109   1.000
    Ca29    Ca   0.70652   0.98111   0.23089   1.000
    Ca30    Ca   0.70658   0.98085   0.73112   1.000
    C31     C    0.11447   0.33333   0.41082   1.000
    Ca32    Ca   0.06255   0.23096   0.01889   1.000
    C33     C    0.11435   0.33350   0.91082   1.000
    C34     C    0.11420   0.83382   0.41080   1.000
    C35     C    0.11420   0.83379   0.91127   1.000
    C36     C    0.61447   0.33332   0.41081   1.000
    C37     C    0.61437   0.33348   0.91080   1.000
    C38     C    0.61420   0.83381   0.41080   1.000
    C39     C    0.61419   0.83379   0.91127   1.000
    C40     C    0.02543   0.35768   0.11586   1.000
    C41     C    0.02518   0.35761   0.61632   1.000
    C42     C    0.02498   0.85799   0.11590   1.000
    C43     C    0.02507   0.85774   0.61606   1.000
    C44     C    0.52543   0.35766   0.11587   1.000
    C45     C    0.52516   0.35761   0.61633   1.000
    C46     C    0.52498   0.85799   0.11591   1.000
    C47     C    0.52506   0.85774   0.61606   1.000
    C48     C    0.35902   0.16632   0.08881   1.000
    C49     C    0.35882   0.16625   0.58920   1.000
    C50     C    0.35884   0.66640   0.08905   1.000
    C51     C    0.35843   0.66679   0.58922   1.000
    C52     C    0.85901   0.16632   0.08881   1.000
    C53     C    0.85881   0.16625   0.58920   1.000
    C54     C    0.85883   0.66640   0.08905   1.000
    C55     C    0.85843   0.66679   0.58920   1.000
    C56     C    0.99881   0.14226   0.38395   1.000
    C57     C    0.99890   0.14185   0.88432   1.000
    C58     C    0.99908   0.64249   0.38361   1.000
    C59     C    0.99883   0.64228   0.88425   1.000
    C60     C    0.49881   0.14225   0.38395   1.000
    C61     C    0.49889   0.14185   0.88432   1.000
    C62     C    0.49907   0.64249   0.38361   1.000
    C63     C    0.49883   0.64228   0.88425   1.000
    C64     C    0.47500   0.41078   0.16632   1.000
    C65     C    0.47476   0.41089   0.66662   1.000
    C66     C    0.47469   0.91112   0.16634   1.000
    C67     C    0.47480   0.91084   0.66653   1.000
    C68     C    0.97500   0.41077   0.16633   1.000
    C69     C    0.97476   0.41089   0.66662   1.000
    C70     C    0.97468   0.91112   0.16634   1.000
    C71     C    0.97479   0.91085   0.66650   1.000
    C72     C    0.35921   0.11581   0.14180   1.000
    C73     C    0.35884   0.11580   0.64233   1.000
    C74     C    0.35902   0.61587   0.14211   1.000
    C75     C    0.35830   0.61649   0.64250   1.000
    C76     C    0.85920   0.11582   0.14188   1.000
    C77     C    0.85883   0.11580   0.64233   1.000
    C78     C    0.85901   0.61587   0.14210   1.000
    C79     C    0.85830   0.61649   0.64250   1.000
    C80     C    0.05212   0.08920   0.33343   1.000
    C81     C    0.05215   0.08873   0.83385   1.000
    C82     C    0.05223   0.58929   0.33321   1.000
    C83     C    0.05201   0.58918   0.83378   1.000
    C84     C    0.55212   0.08920   0.33343   1.000
    C85     C    0.55214   0.08873   0.83385   1.000
    C86     C    0.55222   0.58928   0.33323   1.000
    C87     C    0.55201   0.58917   0.83378   1.000
    C88     C    0.11728   0.38367   0.35757   1.000
    C89     C    0.11727   0.38395   0.85769   1.000
    C90     C    0.11691   0.88431   0.35772   1.000
    C91     C    0.11705   0.88419   0.85810   1.000
    C92     C    0.61728   0.38367   0.35750   1.000
    C93     C    0.61726   0.38396   0.85770   1.000
    C94     C    0.61689   0.88432   0.35770   1.000
    C95     C    0.61704   0.88419   0.85810   1.000
    C96     C    0.26631   0.16089   0.08340   1.000
    C97     C    0.26633   0.16068   0.58359   1.000
    C98     C    0.26621   0.66089   0.08359   1.000
    C99     C    0.26605   0.66109   0.58354   1.000
    O100    O    0.88481   0.94326   0.70310   1.000
    O101    O    0.41249   0.09078   0.17891   1.000
    O102    O    0.41184   0.09085   0.67954   1.000
    O103    O    0.41215   0.59085   0.17923   1.000
    C104    C    0.76629   0.16089   0.08344   1.000
    C105    C    0.76631   0.16069   0.58359   1.000
    C106    C    0.76620   0.66089   0.08358   1.000
    C107    C    0.76604   0.66109   0.58354   1.000
    C108    C    0.12632   0.36591   0.10766   1.000
    C109    C    0.12604   0.36595   0.60793   1.000
    C110    C    0.12601   0.86592   0.10790   1.000
    C111    C    0.12605   0.86579   0.60787   1.000
    C112    C    0.62631   0.36592   0.10766   1.000
    C113    C    0.62603   0.36596   0.60793   1.000
    C114    C    0.62600   0.86592   0.10790   1.000
    C115    C    0.62605   0.86579   0.60788   1.000
    C116    C    0.01075   0.33896   0.41647   1.000
    C117    C    0.01087   0.33894   0.91608   1.000
    C118    C    0.01052   0.83942   0.41643   1.000
    C119    C    0.01076   0.83912   0.91656   1.000
    C120    C    0.51075   0.33897   0.41640   1.000
    C121    C    0.51085   0.33895   0.91610   1.000
    C122    C    0.51049   0.83944   0.41644   1.000
    C123    C    0.51075   0.83913   0.91656   1.000
    C124    C    0.09967   0.13417   0.39215   1.000
    C125    C    0.09984   0.13383   0.89237   1.000
    C126    C    0.09991   0.63406   0.39203   1.000
    C127    C    0.09973   0.63397   0.89254   1.000
    C128    C    0.59967   0.13417   0.39215   1.000
    C129    C    0.59983   0.13383   0.89237   1.000
    C130    C    0.59990   0.63404   0.39204   1.000
    C131    C    0.59973   0.63397   0.89253   1.000
    O132    O    0.09405   0.45297   0.19320   1.000
    O133    O    0.09386   0.45325   0.69324   1.000
    O134    O    0.09398   0.95290   0.19342   1.000
    O135    O    0.09416   0.95268   0.69346   1.000
    O136    O    0.59404   0.45297   0.19320   1.000
    C137    C    0.07307   0.41634   0.16082   1.000
    C138    C    0.07287   0.41651   0.66099   1.000
    C139    C    0.07285   0.91641   0.16099   1.000
    C140    C    0.07298   0.91620   0.66105   1.000
    C141    C    0.57307   0.41632   0.16084   1.000
    C142    C    0.57286   0.41651   0.66099   1.000
    C143    C    0.57285   0.91641   0.16099   1.000
    C144    C    0.57297   0.91621   0.66104   1.000
    C145    C    0.00804   0.39208   0.36598   1.000
    C146    C    0.00826   0.39214   0.86500   1.000
    C147    C    0.00770   0.89264   0.36607   1.000
    C148    C    0.00810   0.89219   0.86605   1.000
    C149    C    0.50804   0.39207   0.36590   1.000
    C150    C    0.50826   0.39212   0.86560   1.000
    C151    C    0.50769   0.89264   0.36606   1.000
    C152    C    0.50809   0.89218   0.86605   1.000
    C153    C    0.15018   0.08381   0.33893   1.000
    C154    C    0.15025   0.08339   0.83924   1.000
    C155    C    0.15030   0.58360   0.33890   1.000
    C156    C    0.15010   0.58354   0.83939   1.000
    C157    C    0.65017   0.08380   0.33894   1.000
    C158    C    0.65024   0.08339   0.83925   1.000
    C159    C    0.65029   0.58361   0.33889   1.000
    C160    C    0.65010   0.58355   0.83938   1.000
    C161    C    0.26634   0.10771   0.13382   1.000
    C162    C    0.26623   0.10755   0.63400   1.000
    C163    C    0.26635   0.60764   0.13391   1.000
    C164    C    0.26592   0.60804   0.63409   1.000
    C165    C    0.76633   0.10772   0.13384   1.000
    C166    C    0.76622   0.10755   0.63404   1.000
    C167    C    0.76634   0.60764   0.13390   1.000
    C168    C    0.76592   0.60803   0.63409   1.000
    O169    O    0.17211   0.29675   0.44319   1.000
    O170    O    0.17186   0.29691   0.94328   1.000
    O171    O    0.17197   0.79713   0.44305   1.000
    O172    O    0.17175   0.79729   0.94370   1.000
    O173    O    0.67210   0.29674   0.44319   1.000
    O174    O    0.67186   0.29691   0.94328   1.000
    O175    O    0.67196   0.79714   0.44305   1.000
    O176    O    0.67174   0.79729   0.94374   1.000
    O177    O    0.99731   0.32054   0.09084   1.000
    O178    O    0.99713   0.32027   0.59153   1.000
    O179    O    0.99667   0.82104   0.09081   1.000
    O180    O    0.99684   0.82068   0.59100   1.000
    O181    O    0.49730   0.32054   0.09084   1.000
    O182    O    0.49711   0.32027   0.59153   1.000
    O183    O    0.49666   0.82104   0.09081   1.000
    O184    O    0.49683   0.82067   0.59105   1.000
    O185    O    0.41245   0.20290   0.05644   1.000
    O186    O    0.41224   0.20286   0.55688   1.000
    O187    O    0.41219   0.70306   0.05675   1.000
    O188    O    0.41192   0.70332   0.55680   1.000
    O189    O    0.91245   0.20289   0.05640   1.000
    O190    O    0.91223   0.20286   0.55688   1.000
    O191    O    0.91218   0.70306   0.05675   1.000
    O192    O    0.91191   0.70333   0.55680   1.000
    O193    O    0.40851   0.17930   0.40897   1.000
    O194    O    0.40861   0.17891   0.90934   1.000
    O195    O    0.40891   0.67979   0.40849   1.000
    O196    O    0.40861   0.67947   0.90910   1.000
    O197    O    0.90850   0.17929   0.40898   1.000
    O198    O    0.90860   0.17891   0.90935   1.000
    O199    O    0.90891   0.67980   0.40848   1.000
    O200    O    0.90859   0.67948   0.90917   1.000
    O201    O    0.38498   0.44308   0.20294   1.000
    O202    O    0.38475   0.44333   0.70313   1.000
    O203    O    0.38469   0.94356   0.20286   1.000
    O204    O    0.38482   0.94326   0.70310   1.000
    O205    O    0.88497   0.44309   0.20293   1.000
    O206    O    0.88474   0.44333   0.70312   1.000
    O207    O    0.88468   0.94356   0.20286   1.000
    O208    O    0.41105   0.59171   0.67989   1.000
    O209    O    0.91249   0.09078   0.17891   1.000
    O210    O    0.91184   0.09085   0.67954   1.000
    O211    O    0.91214   0.59086   0.17923   1.000
    O212    O    0.91105   0.59171   0.67989   1.000
    O213    O    0.03119   0.05681   0.29678   1.000
    O214    O    0.03115   0.05629   0.79729   1.000
    O215    O    0.03119   0.55696   0.29657   1.000
    O216    O    0.03096   0.55689   0.79711   1.000
    O217    O    0.53118   0.05681   0.29678   1.000
    O218    O    0.53114   0.05629   0.79729   1.000
    O219    O    0.53119   0.55696   0.29657   1.000
    O220    O    0.53095   0.55689   0.79711   1.000
    O221    O    0.18263   0.40850   0.32026   1.000
    O222    O    0.18256   0.40900   0.82070   1.000
    O223    O    0.18222   0.90924   0.32055   1.000
    O224    O    0.18233   0.90922   0.82108   1.000
    O225    O    0.68263   0.40850   0.32020   1.000
    O226    O    0.68256   0.40898   0.82069   1.000
    O227    O    0.68221   0.90924   0.32055   1.000
    O228    O    0.68232   0.90922   0.82100   1.000
    O229    O    0.21267   0.19335   0.04700   1.000
    O230    O    0.21296   0.19302   0.54695   1.000
    O231    O    0.21259   0.69334   0.04715   1.000
    O232    O    0.21281   0.69328   0.54678   1.000
    O233    O    0.71265   0.19336   0.04701   1.000
    O234    O    0.71295   0.19302   0.54696   1.000
    O235    O    0.71259   0.69334   0.04714   1.000
    O236    O    0.71281   0.69328   0.54678   1.000
    O237    O    0.21657   0.34099   0.07051   1.000
    O238    O    0.21621   0.34101   0.57066   1.000
    O239    O    0.21632   0.84072   0.07097   1.000
    O240    O    0.21627   0.84071   0.57074   1.000
    O241    O    0.71657   0.34098   0.07053   1.000
    O242    O    0.71619   0.34101   0.57066   1.000
    O243    O    0.71631   0.84072   0.07090   1.000
    O244    O    0.71626   0.84072   0.57070   1.000
    O245    O    0.45301   0.30672   0.45320   1.000
    O246    O    0.45315   0.30655   0.95251   1.000
    O247    O    0.45285   0.80707   0.45304   1.000
    O248    O    0.45313   0.80669   0.95300   1.000
    O249    O    0.95300   0.30672   0.45323   1.000
    O250    O    0.95313   0.30655   0.95251   1.000
    O251    O    0.95284   0.80706   0.45300   1.000
    O252    O    0.95312   0.80668   0.95302   1.000
    O253    O    0.12767   0.15921   0.42933   1.000
    O254    O    0.12801   0.15893   0.92940   1.000
    O255    O    0.12794   0.65891   0.42934   1.000
    O256    O    0.12786   0.65887   0.92975   1.000
    O257    O    0.62766   0.15921   0.42934   1.000
    O258    O    0.62801   0.15892   0.92940   1.000
    O259    O    0.62794   0.65892   0.42930   1.000
    O260    O    0.62787   0.65888   0.92973   1.000
    O261    O    0.59385   0.45325   0.69324   1.000
    O262    O    0.59397   0.95290   0.19342   1.000
    O263    O    0.59415   0.95268   0.69346   1.000
    O264    O    0.44273   0.42936   0.34110   1.000
    O265    O    0.44316   0.42929   0.84059   1.000
    O266    O    0.44231   0.92991   0.34124   1.000
    O267    O    0.44296   0.92910   0.84085   1.000
    O268    O    0.94272   0.42935   0.34109   1.000
    O269    O    0.94316   0.42928   0.84058   1.000
    O270    O    0.94231   0.92990   0.34123   1.000
    O271    O    0.94295   0.92911   0.84080   1.000
    O272    O    0.24024   0.04736   0.30650   1.000
    O273    O    0.24031   0.04698   0.80679   1.000
    O274    O    0.24029   0.54686   0.30668   1.000
    O275    O    0.24010   0.54692   0.80706   1.000
    O276    O    0.74023   0.04735   0.30652   1.000
    O277    O    0.74030   0.04698   0.80679   1.000
    O278    O    0.74028   0.54686   0.30668   1.000
    O279    O    0.74009   0.54692   0.80705   1.000
    O280    O    0.21315   0.07063   0.15886   1.000
    O281    O    0.21319   0.07035   0.65895   1.000
    O282    O    0.21335   0.57043   0.15886   1.000
    O283    O    0.21310   0.57071   0.65900   1.000
    O284    O    0.71312   0.07065   0.15889   1.000
    O285    O    0.71318   0.07036   0.65896   1.000
    O286    O    0.71334   0.57042   0.15885   1.000
    O287    O    0.71310   0.57071   0.65900   1.000
loop_
    _geom_bond_atom_site_label_1
    _geom_bond_atom_site_label_2
    _geom_bond_distance
    _geom_bond_site_symmetry_2
    _ccdc_geom_bond_type
    Ca32   O177      2.31808  1_455   S
    Ca32   O254      2.31736  1_554   S
    Ca3    O181      2.31800      .   S
    Ca3    O258      2.31756  1_554   S
    Ca1    O179      2.31949  1_455   S
    Ca1    O256      2.31849  1_554   S
    Ca5    O183      2.31944      .   S
    Ca5    O260      2.31871  1_554   S
    O229   C96       1.27480      .   S
    O233   C104      1.27528      .   S
    O235   C106      1.27519      .   S
    O231   C98       1.27518      .   S
    O189   C52       1.27547      .   S
    O185   C48       1.27527      .   S
    O191   C54       1.27532      .   S
    O187   C50       1.27531      .   S
    O237   C108      1.24999      .   S
    O237   Ca8       2.31967  1_554   S
    O241   C112      1.24996      .   S
    O241   Ca12      2.31988  1_554   S
    O243   C114      1.25038      .   S
    O243   Ca14      2.31685  1_554   S
    O239   C110      1.24990      .   S
    O239   Ca10      2.31793  1_554   S
    C96    C48       1.44857      .   S
    C96    C161      1.47139      .   S
    C104   C52       1.44830      .   S
    C104   C165      1.47105      .   S
    C106   C54       1.44847      .   S
    C106   C167      1.47113      .   S
    C98    C50       1.44843      .   S
    C98    C163      1.47114      .   S
    C52    C76       1.47101      .   S
    C48    C72       1.46989      .   S
    C50    C74       1.47126      .   S
    C54    C78       1.47115      .   S
    O179   C42       1.25000  1_655   S
    O183   C46       1.25008      .   S
    O177   C40       1.25012  1_655   S
    O181   C44       1.25006      .   S
    C112   C44       1.49944      .   S
    C112   C141      1.47127      .   S
    C108   C40       1.49940      .   S
    C108   C137      1.47129      .   S
    C110   C42       1.49943      .   S
    C110   C139      1.47118      .   S
    C114   C46       1.49941      .   S
    C114   C143      1.47114      .   S
    C40    C68       1.47096  1_455   S
    C44    C64       1.47099      .   S
    C42    C70       1.47095  1_455   S
    C46    C66       1.47086      .   S
    C161   C72       1.49857      .   S
    C161   O280      1.24992      .   S
    C165   C76       1.49922      .   S
    C165   O284      1.24993      .   S
    C167   C78       1.49903      .   S
    C167   O286      1.24998      .   S
    C163   C74       1.49903      .   S
    C163   O282      1.24997      .   S
    C72    O101      1.25127      .   S
    C76    O209      1.25001      .   S
    C78    O211      1.25006      .   S
    C74    O103      1.24992      .   S
    O286   Ca27      2.31902      .   S
    O282   Ca23      2.31899      .   S
    O280   Ca25      2.31804  1_545   S
    O284   Ca29      2.31797  1_545   S
    C137   C68       1.44848  1_455   S
    C137   O132      1.27527      .   S
    C141   C64       1.44829      .   S
    C141   O136      1.27518      .   S
    C139   C70       1.44844  1_455   S
    C139   O134      1.27515      .   S
    C143   C66       1.44822      .   S
    C143   O262      1.27520      .   S
    C64    O201      1.27536      .   S
    C68    O205      1.27530      .   S
    C70    O207      1.27530      .   S
    C66    O203      1.27528      .   S
    O101   Ca15      2.31896      .   S
    O209   Ca19      2.31899      .   S
    O103   Ca17      2.31956      .   S
    O211   Ca21      2.31943      .   S
    Ca23   O221      2.31986      .   S
    Ca27   O225      2.31907      .   S
    Ca25   O223      2.31817      .   S
    Ca29   O227      2.31820      .   S
    Ca19   O270      2.31867  1_545   S
    Ca15   O266      2.31867  1_545   S
    Ca21   O268      2.32043      .   S
    Ca17   O264      2.32040      .   S
    O215   C82       1.27532      .   S
    O219   C86       1.27537      .   S
    O213   C80       1.27534      .   S
    O217   C84       1.27542      .   S
    O272   C153      1.27527      .   S
    O276   C157      1.27521      .   S
    O278   C159      1.27542      .   S
    O274   C155      1.27541      .   S
    O225   C92       1.24991      .   S
    O221   C88       1.25005      .   S
    O227   C94       1.24975      .   S
    O223   C90       1.24998      .   S
    C82    C155      1.44851      .   S
    C82    C58       1.47137  1_455   S
    C86    C159      1.44850      .   S
    C86    C62       1.47143      .   S
    C84    C157      1.44835      .   S
    C84    C60       1.47107      .   S
    C80    C153      1.44836      .   S
    C80    C56       1.47111  1_455   S
    C159   C130      1.47123      .   S
    C155   C126      1.47127      .   S
    C153   C124      1.47122      .   S
    C157   C128      1.47119      .   S
    O268   C145      1.25024  1_655   S
    O264   C149      1.24904      .   S
    O270   C147      1.25018  1_655   S
    O266   C151      1.24993      .   S
    C92    C149      1.49927      .   S
    C92    C36       1.47241      .   S
    C88    C145      1.49928      .   S
    C88    C31       1.47134      .   S
    C94    C151      1.49926      .   S
    C94    C38       1.47159      .   S
    C90    C147      1.49937      .   S
    C90    C34       1.47104      .   S
    C149   C120      1.47141      .   S
    C145   C116      1.47149      .   S
    C151   C122      1.47125      .   S
    C147   C118      1.47125      .   S
    C58    C126      1.49920  1_655   S
    C58    O199      1.25014      .   S
    C62    C130      1.49913      .   S
    C62    O195      1.24997      .   S
    C56    C124      1.49919  1_655   S
    C56    O197      1.25012      .   S
    C60    C128      1.49919      .   S
    C60    O193      1.24998      .   S
    C126   O255      1.25013      .   S
    C130   O259      1.24954      .   S
    C128   O257      1.25006      .   S
    C124   O253      1.24999      .   S
    O199   Ca13      2.31934      .   S
    O195   Ca9       2.31929      .   S
    O193   Ca7       2.31992      .   S
    O197   Ca11      2.31990      .   S
    C34    C118      1.44829      .   S
    C34    O171      1.27540      .   S
    C38    C122      1.44835      .   S
    C38    O175      1.27527      .   S
    C36    C120      1.44886      .   S
    C36    O173      1.27529      .   S
    C31    C116      1.44842      .   S
    C31    O169      1.27528      .   S
    C120   O245      1.27580      .   S
    C118   O251      1.27527  1_455   S
    C122   O247      1.27542      .   S
    C116   O249      1.27559  1_455   S
    O259   Ca6       2.32102      .   S
    O253   Ca0       2.31784      .   S
    O257   Ca4       2.31887      .   S
    O255   Ca2       2.32041      .   S
    Ca9    O240      2.31871      .   S
    Ca13   O244      2.31817      .   S
    Ca11   O242      2.32009      .   S
    Ca7    O238      2.32004      .   S
    Ca6    O184      2.31990      .   S
    Ca2    O180      2.31940  1_455   S
    Ca0    O178      2.32066  1_455   S
    Ca4    O182      2.31976      .   S
    O232   C99       1.27534      .   S
    O236   C107      1.27530      .   S
    O230   C97       1.27544      .   S
    O234   C105      1.27526      .   S
    O188   C51       1.27533      .   S
    O192   C55       1.27523      .   S
    O186   C49       1.27533      .   S
    O190   C53       1.27533      .   S
    O238   C109      1.24998      .   S
    O242   C113      1.24998      .   S
    O244   C115      1.25024      .   S
    O240   C111      1.24997      .   S
    C107   C55       1.44848      .   S
    C107   C168      1.47147      .   S
    C99    C51       1.44861      .   S
    C99    C164      1.47136      .   S
    C97    C49       1.44840      .   S
    C97    C162      1.47067      .   S
    C105   C53       1.44843      .   S
    C105   C166      1.47127      .   S
    C49    C73       1.47116      .   S
    C53    C77       1.47115      .   S
    C55    C79       1.47148      .   S
    C51    C75       1.47127      .   S
    O180   C43       1.25053  1_655   S
    O184   C47       1.25005      .   S
    O178   C41       1.25006  1_655   S
    O182   C45       1.25018      .   S
    C111   C43       1.49910      .   S
    C111   C140      1.47129      .   S
    C115   C47       1.49911      .   S
    C115   C144      1.47120      .   S
    C109   C41       1.49910      .   S
    C109   C138      1.47161      .   S
    C113   C45       1.49909      .   S
    C113   C142      1.47154      .   S
    C47    C67       1.47105      .   S
    C43    C71       1.47079  1_455   S
    C41    C69       1.47124  1_455   S
    C45    C65       1.47113      .   S
    C162   C73       1.49957      .   S
    C162   O281      1.25011      .   S
    C166   C77       1.49920      .   S
    C166   O285      1.25000      .   S
    C168   C79       1.49886      .   S
    C168   O287      1.25000      .   S
    C164   C75       1.49890      .   S
    C164   O283      1.25002      .   S
    C73    O102      1.24996      .   S
    C77    O210      1.25001      .   S
    C79    O212      1.24999      .   S
    C75    O208      1.24992      .   S
    O281   Ca26      2.31933  1_545   S
    O285   Ca30      2.31928  1_545   S
    O287   Ca28      2.31999      .   S
    O283   Ca24      2.32006      .   S
    C138   C69       1.44874  1_455   S
    C138   O133      1.27536      .   S
    C142   C65       1.44851      .   S
    C142   O261      1.27541      .   S
    C144   C67       1.44840      .   S
    C144   O263      1.27520      .   S
    C140   C71       1.44874  1_455   S
    C140   O135      1.27514      .   S
    C71    O100      1.27543      .   S
    C67    O204      1.27529      .   S
    C69    O206      1.27528      .   S
    C65    O202      1.27531      .   S
    O210   Ca20      2.31846      .   S
    O102   Ca16      2.31844      .   S
    O212   Ca22      2.31881      .   S
    O208   Ca18      2.31883      .   S
    Ca28   O226      2.32010      .   S
    Ca24   O222      2.31996      .   S
    Ca30   O228      2.31815      .   S
    Ca26   O224      2.31932      .   S
    Ca18   O265      2.31838      .   S
    Ca22   O269      2.31835      .   S
    Ca16   O267      2.31806  1_545   S
    Ca20   O271      2.31734  1_545   S
    O220   C87       1.27528      .   S
    O216   C83       1.27528      .   S
    O218   C85       1.27538      .   S
    O214   C81       1.27538      .   S
    O277   C158      1.27522      .   S
    O273   C154      1.27516      .   S
    O279   C160      1.27535      .   S
    O275   C156      1.27532      .   S
    O226   C93       1.24996      .   S
    O222   C89       1.24997      .   S
    O228   C95       1.25048      .   S
    O224   C91       1.24994      .   S
    C87    C160      1.44830      .   S
    C87    C63       1.47115      .   S
    C83    C156      1.44830      .   S
    C83    C59       1.47108  1_455   S
    C85    C158      1.44835      .   S
    C85    C61       1.47129      .   S
    C81    C154      1.44827      .   S
    C81    C57       1.47129  1_455   S
    C154   C125      1.47094      .   S
    C158   C129      1.47078      .   S
    C160   C131      1.47112      .   S
    C156   C127      1.47115      .   S
    O269   C146      1.24098  1_655   S
    O265   C150      1.24885      .   S
    O271   C148      1.25078  1_655   S
    O267   C152      1.24997      .   S
    C89    C146      1.50265      .   S
    C89    C33       1.47121      .   S
    C93    C150      1.49947      .   S
    C93    C37       1.47118      .   S
    C91    C148      1.49934      .   S
    C91    C35       1.47110      .   S
    C95    C152      1.49935      .   S
    C95    C39       1.47112      .   S
    C146   C117      1.48094      .   S
    C150   C121      1.47242      .   S
    C152   C123      1.47095      .   S
    C148   C119      1.47100      .   S
    C63    C131      1.49934      .   S
    C63    O196      1.24975      .   S
    C59    C127      1.49941  1_655   S
    C59    O200      1.25012      .   S
    C57    C125      1.49924  1_655   S
    C57    O198      1.25008      .   S
    C61    C129      1.49922      .   S
    C61    O194      1.24990      .   S
    C129   O258      1.24999      .   S
    C125   O254      1.25004      .   S
    C131   O260      1.25000      .   S
    C127   O256      1.25006      .   S
    O196   Ca10      2.31945      .   S
    O200   Ca14      2.31859      .   S
    O194   Ca8       2.31959      .   S
    O198   Ca12      2.31947      .   S
    C37    C121      1.44846      .   S
    C37    O174      1.27544      .   S
    C33    C117      1.44847      .   S
    C33    O170      1.27542      .   S
    C39    C123      1.44827      .   S
    C39    O176      1.27525      .   S
    C35    C119      1.44826      .   S
    C35    O172      1.27470      .   S
    C117   O250      1.27531  1_455   S
    C121   O246      1.27516      .   S
    C123   O248      1.27515      .   S
    C119   O252      1.27543  1_455   S
    O169   Ca0       2.53508      .   S
    O169   Ca7       2.33404      .   S
    O170   Ca32      2.53177  1_556   S
    O170   Ca8       2.33343      .   S
    O171   Ca2       2.53643      .   S
    O171   Ca9       2.33366      .   S
    O172   Ca1       2.53464  1_556   S
    O172   Ca10      2.33226      .   S
    O173   Ca4       2.53561      .   S
    O173   Ca11      2.33401      .   S
    O174   Ca3       2.53187  1_556   S
    O174   Ca12      2.33339      .   S
    O175   Ca6       2.53641      .   S
    O175   Ca13      2.33373      .   S
    O176   Ca5       2.53433  1_556   S
    O176   Ca14      2.33173      .   S
    O185   Ca3       2.33179      .   S
    O185   Ca8       2.53386  1_554   S
    O186   Ca4       2.33365      .   S
    O186   Ca7       2.53603      .   S
    O187   Ca5       2.33304      .   S
    O187   Ca10      2.53234  1_554   S
    O188   Ca6       2.33404      .   S
    O188   Ca9       2.53507      .   S
    O189   Ca32      2.33197  1_655   S
    O189   Ca12      2.53329  1_554   S
    O190   Ca0       2.33384  1_655   S
    O190   Ca11      2.53604      .   S
    O191   Ca1       2.33323  1_655   S
    O191   Ca14      2.53231  1_554   S
    O192   Ca2       2.33424  1_655   S
    O192   Ca13      2.53504      .   S
    O201   Ca17      2.53502      .   S
    O201   Ca23      2.33358      .   S
    O202   Ca18      2.53521      .   S
    O202   Ca24      2.33372      .   S
    O203   Ca15      2.53384  1_565   S
    O203   Ca25      2.33211      .   S
    O204   Ca16      2.53246  1_565   S
    O204   Ca26      2.33298      .   S
    O205   Ca21      2.53497      .   S
    O205   Ca27      2.33355      .   S
    O206   Ca22      2.53532      .   S
    O206   Ca28      2.33373      .   S
    O207   Ca19      2.53374  1_565   S
    O207   Ca29      2.33214      .   S
    O100   Ca20      2.53244  1_565   S
    O100   Ca30      2.33297      .   S
    O213   Ca19      2.33306  1_455   S
    O213   Ca25      2.53303  1_545   S
    O214   Ca20      2.33257  1_455   S
    O214   Ca26      2.53366  1_545   S
    O215   Ca21      2.33421  1_455   S
    O215   Ca23      2.53669      .   S
    O216   Ca22      2.33393  1_455   S
    O216   Ca24      2.53588      .   S
    O217   Ca15      2.33283      .   S
    O217   Ca29      2.53300  1_545   S
    O218   Ca16      2.33236      .   S
    O218   Ca30      2.53364  1_545   S
    O219   Ca17      2.33393      .   S
    O219   Ca27      2.53668      .   S
    O220   Ca18      2.33378      .   S
    O220   Ca28      2.53593      .   S
    O229   Ca32      2.33270      .   S
    O229   Ca8       2.53410  1_554   S
    O230   Ca0       2.33436      .   S
    O230   Ca7       2.53480      .   S
    O231   Ca1       2.33229      .   S
    O231   Ca10      2.53639  1_554   S
    O232   Ca2       2.33398      .   S
    O232   Ca9       2.53600      .   S
    O233   Ca3       2.33262      .   S
    O233   Ca12      2.53408  1_554   S
    O234   Ca4       2.33364      .   S
    O234   Ca11      2.53478      .   S
    O235   Ca5       2.33215      .   S
    O235   Ca14      2.53635  1_554   S
    O236   Ca6       2.33399      .   S
    O236   Ca13      2.53604      .   S
    O245   Ca4       2.53510      .   S
    O245   Ca7       2.33428      .   S
    O246   Ca3       2.53903  1_556   S
    O246   Ca8       2.33233      .   S
    O247   Ca6       2.53495      .   S
    O247   Ca9       2.33410      .   S
    O248   Ca5       2.53448  1_556   S
    O248   Ca10      2.33263      .   S
    O249   Ca0       2.53378  1_655   S
    O249   Ca11      2.33435      .   S
    O250   Ca32      2.53907  1_656   S
    O250   Ca12      2.33232      .   S
    O251   Ca2       2.53560  1_655   S
    O251   Ca13      2.33402      .   S
    O252   Ca1       2.53426  1_656   S
    O252   Ca14      2.33267      .   S
    O132   Ca21      2.53446  1_455   S
    O132   Ca23      2.33293      .   S
    O133   Ca22      2.53605  1_455   S
    O133   Ca24      2.33427      .   S
    O134   Ca19      2.53533  1_465   S
    O134   Ca25      2.33238      .   S
    O135   Ca20      2.53721  1_465   S
    O135   Ca26      2.33281      .   S
    O136   Ca17      2.53441      .   S
    O136   Ca27      2.33297      .   S
    O261   Ca18      2.53592      .   S
    O261   Ca28      2.33416      .   S
    O262   Ca15      2.53521  1_565   S
    O262   Ca29      2.33233      .   S
    O263   Ca16      2.53710  1_565   S
    O263   Ca30      2.33279      .   S
    O272   Ca15      2.33270      .   S
    O272   Ca25      2.53612  1_545   S
    O273   Ca16      2.33254      .   S
    O273   Ca26      2.53538  1_545   S
    O274   Ca17      2.33427      .   S
    O274   Ca23      2.53457      .   S
    O275   Ca18      2.33390      .   S
    O275   Ca24      2.53449      .   S
    O276   Ca19      2.33269      .   S
    O276   Ca29      2.53639  1_545   S
    O277   Ca20      2.33254      .   S
    O277   Ca30      2.53534  1_545   S
    O278   Ca21      2.33428      .   S
    O278   Ca27      2.53456      .   S
    O279   Ca22      2.33387      .   S
    O279   Ca28      2.53456      .   S
