# CIF file generated by openbabel 2.4.90, see http://openbabel.sf.net
data_I
_chemical_name_common ''
_cell_length_a 14.678
_cell_length_b 21.376
_cell_length_c 21.376
_cell_angle_alpha 83.236
_cell_angle_beta 69.927
_cell_angle_gamma 69.929
_space_group_name_H-M_alt 'P 1'
_space_group_name_Hall 'P 1'
loop_
    _symmetry_equiv_pos_as_xyz
    x,y,z
loop_
    _atom_site_label
    _atom_site_type_symbol
    _atom_site_fract_x
    _atom_site_fract_y
    _atom_site_fract_z
    _atom_site_occupancy
    Zr0     Zr   0.06255   0.23096   0.01889   1.000
    Zr1     Zr   0.06250   0.23090   0.51910   1.000
    Zr2     Zr   0.06240   0.73109   0.01916   1.000
    Zr3     Zr   0.06242   0.73112   0.51888   1.000
    Zr4     Zr   0.56254   0.23096   0.01890   1.000
    Zr5     Zr   0.56249   0.23090   0.51917   1.000
    Zr6     Zr   0.56240   0.73109   0.01916   1.000
    Zr7     Zr   0.56241   0.73112   0.51888   1.000
    Zr8     Zr   0.31251   0.26890   0.48108   1.000
    Zr9     Zr   0.31253   0.26893   0.98088   1.000
    Zr10    Zr   0.31249   0.76913   0.48082   1.000
    Zr11    Zr   0.31250   0.76908   0.98115   1.000
    Zr12    Zr   0.81251   0.26890   0.48108   1.000
    Zr13    Zr   0.81252   0.26893   0.98088   1.000
    Zr14    Zr   0.81248   0.76913   0.48082   1.000
    Zr15    Zr   0.81249   0.76908   0.98115   1.000
    Zr16    Zr   0.41846   0.01921   0.26888   1.000
    Zr17    Zr   0.41851   0.01887   0.76912   1.000
    Zr18    Zr   0.41860   0.51891   0.26893   1.000
    Zr19    Zr   0.41835   0.51922   0.76907   1.000
    Zr20    Zr   0.91846   0.01921   0.26888   1.000
    Zr21    Zr   0.91851   0.01886   0.76912   1.000
    Zr22    Zr   0.91859   0.51891   0.26892   1.000
    Zr23    Zr   0.91834   0.51922   0.76907   1.000
    Zr24    Zr   0.20672   0.48084   0.23088   1.000
    Zr25    Zr   0.20647   0.48111   0.73110   1.000
    Zr26    Zr   0.20653   0.98111   0.23089   1.000
    Zr27    Zr   0.20659   0.98084   0.73112   1.000
    Zr28    Zr   0.70672   0.48084   0.23088   1.000
    Zr29    Zr   0.70647   0.48111   0.73109   1.000
    Zr30    Zr   0.70652   0.98111   0.23089   1.000
    Zr31    Zr   0.70658   0.98085   0.73112   1.000
    N32     N    0.06234   0.86169   0.38861   1.000
    O33     O    0.15228   0.82241   0.42527   1.000
    O34     O    0.12836   0.90343   0.33216   1.000
    O35     O    0.99636   0.91812   0.34683   1.000
    O36     O    0.97250   0.82489   0.42776   1.000
    N37     N    0.31220   0.63893   0.61148   1.000
    O38     O    0.22491   0.67556   0.57215   1.000
    O39     O    0.36345   0.59720   0.66798   1.000
    O40     O    0.26099   0.58242   0.65326   1.000
    O41     O    0.39968   0.67808   0.57466   1.000
    N42     N    0.31256   0.13842   0.61143   1.000
    O43     O    0.39996   0.17765   0.57473   1.000
    O44     O    0.22514   0.17519   0.57223   1.000
    O45     O    0.26122   0.08201   0.65323   1.000
    O46     O    0.36387   0.09664   0.66788   1.000
    N47     N    0.81255   0.13842   0.61144   1.000
    O48     O    0.86386   0.09664   0.66788   1.000
    O49     O    0.72513   0.17519   0.57225   1.000
    O50     O    0.89996   0.17765   0.57471   1.000
    O51     O    0.76121   0.08201   0.65324   1.000
    N52     N    0.81219   0.63893   0.61147   1.000
    O53     O    0.86345   0.59720   0.66798   1.000
    O54     O    0.72490   0.67556   0.57215   1.000
    O55     O    0.89968   0.67808   0.57466   1.000
    O56     O    0.76099   0.58242   0.65326   1.000
    N57     N    0.04885   0.38860   0.63880   1.000
    O58     O    0.92223   0.42541   0.67795   1.000
    O59     O    0.09951   0.42789   0.67549   1.000
    O60     O    0.15660   0.34678   0.58234   1.000
    O61     O    0.03933   0.33209   0.59706   1.000
    N62     N    0.54884   0.38860   0.63880   1.000
    O63     O    0.42222   0.42541   0.67796   1.000
    O64     O    0.53932   0.33209   0.59708   1.000
    O65     O    0.65659   0.34678   0.58234   1.000
    O66     O    0.59950   0.42789   0.67548   1.000
    N67     N    0.54887   0.88849   0.63873   1.000
    O68     O    0.59962   0.92763   0.67551   1.000
    O69     O    0.53924   0.83219   0.59685   1.000
    O70     O    0.42229   0.92527   0.67792   1.000
    O71     O    0.65662   0.84671   0.58224   1.000
    N72     N    0.31259   0.63856   0.11133   1.000
    O73     O    0.22504   0.67539   0.07224   1.000
    O74     O    0.26131   0.58210   0.15310   1.000
    O75     O    0.36398   0.59672   0.16771   1.000
    O76     O    0.39994   0.67782   0.07464   1.000
    N77     N    0.57604   0.11151   0.36126   1.000
    O78     O    0.70270   0.07240   0.32448   1.000
    O79     O    0.58556   0.15328   0.41776   1.000
    O80     O    0.52543   0.07476   0.32204   1.000
    O81     O    0.46828   0.16780   0.40314   1.000
    N82     N    0.81269   0.13855   0.11115   1.000
    O83     O    0.90010   0.17774   0.07440   1.000
    O84     O    0.72515   0.17536   0.07205   1.000
    O85     O    0.76126   0.08222   0.15302   1.000
    O86     O    0.86408   0.09677   0.16752   1.000
    N87     N    0.56268   0.36128   0.88841   1.000
    O88     O    0.49672   0.41777   0.84662   1.000
    O89     O    0.65244   0.32210   0.92524   1.000
    O90     O    0.62860   0.40316   0.83215   1.000
    O91     O    0.47276   0.32451   0.92755   1.000
    N92     N    0.57623   0.61149   0.36110   1.000
    O93     O    0.52556   0.57472   0.32193   1.000
    O94     O    0.70283   0.57219   0.32445   1.000
    O95     O    0.58570   0.65326   0.41760   1.000
    O96     O    0.46846   0.66798   0.40288   1.000
    N97     N    0.07602   0.61139   0.86163   1.000
    O98     O    0.96828   0.66783   0.90340   1.000
    O99     O    0.20262   0.57223   0.82485   1.000
    O100    O    0.02534   0.57472   0.82236   1.000
    O101    O    0.08558   0.65319   0.91804   1.000
    N102    N    0.54877   0.88871   0.13864   1.000
    O103    O    0.53915   0.83238   0.09681   1.000
    O104    O    0.65659   0.84680   0.08233   1.000
    O105    O    0.42219   0.92552   0.17776   1.000
    O106    O    0.59951   0.92786   0.17540   1.000
    N107    N    0.04877   0.88871   0.13865   1.000
    O108    O    0.92219   0.92552   0.17776   1.000
    O109    O    0.03915   0.83239   0.09682   1.000
    O110    O    0.15659   0.84680   0.08235   1.000
    O111    O    0.09951   0.92786   0.17540   1.000
    N112    N    0.31271   0.13855   0.11113   1.000
    O113    O    0.40010   0.17774   0.07440   1.000
    O114    O    0.36409   0.09677   0.16751   1.000
    O115    O    0.22516   0.17535   0.07204   1.000
    O116    O    0.26127   0.08221   0.15300   1.000
    N117    N    0.06263   0.36117   0.38858   1.000
    O118    O    0.99664   0.41765   0.34679   1.000
    O119    O    0.97269   0.32449   0.42787   1.000
    O120    O    0.15247   0.32200   0.42536   1.000
    O121    O    0.12865   0.40292   0.33207   1.000
    N122    N    0.07605   0.11151   0.36126   1.000
    O123    O    0.08557   0.15329   0.41774   1.000
    O124    O    0.20270   0.07240   0.32447   1.000
    O125    O    0.96828   0.16780   0.40314   1.000
    O126    O    0.02544   0.07476   0.32204   1.000
    N127    N    0.04887   0.88849   0.63872   1.000
    O128    O    0.15663   0.84670   0.58225   1.000
    O129    O    0.03925   0.83219   0.59683   1.000
    O130    O    0.92228   0.92527   0.67792   1.000
    O131    O    0.09962   0.92762   0.67551   1.000
    N132    N    0.57615   0.11111   0.86158   1.000
    O133    O    0.58571   0.15303   0.91786   1.000
    O134    O    0.46836   0.16752   0.90334   1.000
    O135    O    0.52549   0.07434   0.82239   1.000
    O136    O    0.70278   0.07202   0.82477   1.000
    N137    N    0.07623   0.61150   0.36110   1.000
    O138    O    0.08571   0.65326   0.41761   1.000
    O139    O    0.02556   0.57472   0.32192   1.000
    O140    O    0.20284   0.57219   0.32445   1.000
    O141    O    0.96846   0.66798   0.40288   1.000
    N142    N    0.54909   0.38853   0.13853   1.000
    O143    O    0.59973   0.42772   0.17528   1.000
    O144    O    0.65682   0.34674   0.08211   1.000
    O145    O    0.42247   0.42525   0.17772   1.000
    O146    O    0.53951   0.33214   0.09670   1.000
    N147    N    0.06253   0.86145   0.88882   1.000
    O148    O    0.15233   0.82232   0.92562   1.000
    O149    O    0.12850   0.90324   0.83246   1.000
    O150    O    0.99663   0.91772   0.84689   1.000
    O151    O    0.97267   0.82466   0.92795   1.000
    N152    N    0.81258   0.63856   0.11132   1.000
    O153    O    0.89993   0.67782   0.07464   1.000
    O154    O    0.72504   0.67539   0.07224   1.000
    O155    O    0.86397   0.59672   0.16770   1.000
    O156    O    0.76130   0.58210   0.15310   1.000
    N157    N    0.56263   0.36117   0.38854   1.000
    O158    O    0.49665   0.41765   0.34678   1.000
    O159    O    0.65247   0.32199   0.42534   1.000
    O160    O    0.62865   0.40292   0.33204   1.000
    O161    O    0.47270   0.32449   0.42784   1.000
    N162    N    0.57602   0.61139   0.86162   1.000
    O163    O    0.58558   0.65319   0.91803   1.000
    O164    O    0.52534   0.57472   0.82235   1.000
    O165    O    0.46829   0.66783   0.90337   1.000
    O166    O    0.70262   0.57223   0.82484   1.000
    N167    N    0.04909   0.38854   0.13852   1.000
    O168    O    0.15682   0.34675   0.08211   1.000
    O169    O    0.09974   0.42772   0.17528   1.000
    O170    O    0.92247   0.42525   0.17771   1.000
    O171    O    0.03951   0.33214   0.09669   1.000
    N172    N    0.06268   0.36128   0.88833   1.000
    O173    O    0.15244   0.32210   0.92521   1.000
    O174    O    0.97276   0.32451   0.92751   1.000
    O175    O    0.99672   0.41777   0.84658   1.000
    O176    O    0.12860   0.40317   0.83212   1.000
    N177    N    0.56253   0.86145   0.88882   1.000
    O178    O    0.47267   0.82467   0.92795   1.000
    O179    O    0.49663   0.91772   0.84690   1.000
    O180    O    0.62849   0.90324   0.83244   1.000
    O181    O    0.65232   0.82232   0.92563   1.000
    N182    N    0.56232   0.86169   0.38861   1.000
    O183    O    0.62835   0.90343   0.33216   1.000
    O184    O    0.47250   0.82490   0.42777   1.000
    O185    O    0.49636   0.91813   0.34684   1.000
    O186    O    0.65227   0.82241   0.42527   1.000
    N187    N    0.07615   0.11111   0.86158   1.000
    O188    O    0.02549   0.07434   0.82239   1.000
    O189    O    0.08572   0.15303   0.91786   1.000
    O190    O    0.96836   0.16752   0.90335   1.000
    O191    O    0.20278   0.07202   0.82477   1.000
    O192    O    0.12358   0.06406   0.31376   1.000
    O193    O    0.81255   0.18592   0.56397   1.000
    O194    O    0.31252   0.68610   0.06394   1.000
    O195    O    0.81251   0.68610   0.06394   1.000
    O196    O    0.56257   0.31374   0.43611   1.000
    O197    O    0.81231   0.68632   0.56389   1.000
    O198    O    0.12351   0.56395   0.81411   1.000
    O199    O    0.62351   0.56395   0.81410   1.000
    O200    O    0.62373   0.56393   0.31368   1.000
    O201    O    0.62358   0.06405   0.31377   1.000
    O202    O    0.56247   0.81399   0.93629   1.000
    O203    O    0.31256   0.18592   0.56396   1.000
    O204    O    0.50143   0.93595   0.68621   1.000
    O205    O    0.00143   0.93595   0.68621   1.000
    O206    O    0.31231   0.68632   0.56389   1.000
    O207    O    0.56260   0.31381   0.93590   1.000
    O208    O    0.00134   0.43618   0.68621   1.000
    O209    O    0.00157   0.43600   0.18601   1.000
    O210    O    0.81262   0.18604   0.06372   1.000
    O211    O    0.50133   0.43618   0.68622   1.000
    O212    O    0.06237   0.81415   0.43603   1.000
    O213    O    0.00133   0.93621   0.18608   1.000
    O214    O    0.12373   0.56394   0.31368   1.000
    O215    O    0.12366   0.06367   0.81408   1.000
    O216    O    0.06260   0.31382   0.93586   1.000
    O217    O    0.50133   0.93621   0.18608   1.000
    O218    O    0.50157   0.43600   0.18601   1.000
    O219    O    0.31262   0.18604   0.06371   1.000
    O220    O    0.62365   0.06368   0.81408   1.000
    O221    O    0.06258   0.31374   0.43612   1.000
    O222    O    0.06248   0.81399   0.93629   1.000
    O223    O    0.56237   0.81415   0.43604   1.000
loop_
    _geom_bond_atom_site_label_1
    _geom_bond_atom_site_label_2
    _geom_bond_distance
    _geom_bond_site_symmetry_2
    _ccdc_geom_bond_type
    N32    O33       1.69017      .   S
    Zr10   O33       2.82782      .   S
    N32    O34       1.65173      .   S
    Zr26   O34       2.74150      .   S
    N32    O35       1.65179  1_455   S
    Zr20   O35       2.74170  1_545   S
    N32    O36       1.69029  1_455   S
    Zr14   O36       2.82811      .   S
    N37    O38       1.69028      .   S
    Zr3    O38       2.82792      .   S
    N37    O39       1.65216      .   S
    Zr19   O39       2.74265      .   S
    N37    O40       1.65228      .   S
    Zr25   O40       2.74321      .   S
    N37    O41       1.69034      .   S
    Zr7    O41       2.82811      .   S
    N42    O43       1.69033      .   S
    Zr5    O43       2.82805      .   S
    N42    O44       1.69026      .   S
    Zr1    O44       2.82814      .   S
    N42    O45       1.65164      .   S
    Zr27   O45       2.74173  1_565   S
    N42    O46       1.65204      .   S
    Zr17   O46       2.74214      .   S
    N47    O48       1.65201      .   S
    Zr21   O48       2.74212      .   S
    N47    O49       1.69002      .   S
    Zr5    O49       2.82749      .   S
    N47    O50       1.69044      .   S
    Zr1    O50       2.82829  1_455   S
    N47    O51       1.65162      .   S
    Zr31   O51       2.74169  1_565   S
    N52    O53       1.65219      .   S
    Zr23   O53       2.74267      .   S
    N52    O54       1.69027      .   S
    Zr7    O54       2.82793      .   S
    N52    O55       1.69037      .   S
    Zr3    O55       2.82821  1_455   S
    N52    O56       1.65228      .   S
    Zr29   O56       2.74319      .   S
    N57    O58       1.69039  1_455   S
    Zr29   O58       2.82816      .   S
    N57    O59       1.69032      .   S
    Zr25   O59       2.82807      .   S
    N57    O60       1.65256      .   S
    Zr8    O60       2.74356      .   S
    N57    O61       1.65231      .   S
    Zr1    O61       2.74346      .   S
    N62    O63       1.69033      .   S
    Zr25   O63       2.82808      .   S
    N62    O64       1.65210      .   S
    Zr5    O64       2.74276      .   S
    N62    O65       1.65257      .   S
    Zr12   O65       2.74359      .   S
    N62    O66       1.69026      .   S
    Zr29   O66       2.82795      .   S
    N67    O68       1.69047      .   S
    Zr31   O68       2.82807      .   S
    N67    O69       1.65130      .   S
    Zr7    O69       2.74146      .   S
    N67    O70       1.68999      .   S
    Zr27   O70       2.82721      .   S
    N67    O71       1.65244      .   S
    Zr14   O71       2.74266      .   S
    N72    O73       1.69019      .   S
    Zr2    O73       2.82741      .   S
    N72    O74       1.65191      .   S
    Zr24   O74       2.74220      .   S
    N72    O75       1.65171      .   S
    Zr18   O75       2.74204      .   S
    N72    O76       1.69008      .   S
    Zr6    O76       2.82733      .   S
    N77    O78       1.69049      .   S
    Zr20   O78       2.82806      .   S
    N77    O79       1.65248      .   S
    Zr5    O79       2.74311      .   S
    N77    O80       1.68962      .   S
    Zr16   O80       2.82655      .   S
    N77    O81       1.65130      .   S
    Zr8    O81       2.74132      .   S
    N82    O83       1.68981      .   S
    Zr0    O83       2.82660  1_455   S
    N82    O84       1.69027      .   S
    Zr4    O84       2.82772      .   S
    N82    O85       1.65157      .   S
    Zr30   O85       2.74118  1_565   S
    N82    O86       1.65129      .   S
    Zr20   O86       2.74098      .   S
    N87    O88       1.65245      .   S
    Zr19   O88       2.74303      .   S
    N87    O89       1.69008      .   S
    Zr13   O89       2.82738      .   S
    N87    O90       1.65107      .   S
    Zr29   O90       2.74106      .   S
    N87    O91       1.69088      .   S
    Zr9    O91       2.82860      .   S
    N92    O93       1.69006      .   S
    Zr18   O93       2.82760      .   S
    N92    O94       1.69028      .   S
    Zr22   O94       2.82809      .   S
    N92    O95       1.65201      .   S
    Zr7    O95       2.74319      .   S
    N92    O96       1.65250      .   S
    Zr10   O96       2.74321      .   S
    N97    O98       1.65184  1_455   S
    Zr15   O98       2.74172      .   S
    N97    O99       1.69010      .   S
    Zr19   O99       2.82771      .   S
    N97    O100      1.69008      .   S
    Zr23   O100      2.82784  1_655   S
    N97    O101      1.65159      .   S
    Zr2    O101      2.74137  1_554   S
    N102   O103      1.65098      .   S
    Zr6    O103      2.74063      .   S
    N102   O104      1.65197      .   S
    Zr15   O104      2.74126  1_556   S
    N102   O105      1.68981      .   S
    Zr26   O105      2.82672      .   S
    N102   O106      1.69015      .   S
    Zr30   O106      2.82740      .   S
    N107   O108      1.68986  1_455   S
    Zr30   O108      2.82680      .   S
    N107   O109      1.65103      .   S
    Zr2    O109      2.74071      .   S
    N107   O110      1.65186      .   S
    Zr11   O110      2.74156  1_556   S
    N107   O111      1.69011      .   S
    Zr26   O111      2.82739      .   S
    N112   O113      1.68971      .   S
    Zr4    O113      2.82645      .   S
    N112   O114      1.65138      .   S
    Zr16   O114      2.74109      .   S
    N112   O115      1.69022      .   S
    Zr0    O115      2.82771      .   S
    N112   O116      1.65158      .   S
    Zr26   O116      2.74122  1_565   S
    N117   O118      1.65250  1_455   S
    Zr22   O118      2.74349      .   S
    N117   O119      1.69026  1_455   S
    Zr12   O119      2.82799      .   S
    N117   O120      1.69026      .   S
    Zr8    O120      2.82806      .   S
    N117   O121      1.65249      .   S
    Zr24   O121      2.74337      .   S
    N122   O123      1.65219      .   S
    Zr1    O123      2.74227      .   S
    N122   O124      1.69051      .   S
    Zr16   O124      2.82807      .   S
    N122   O125      1.65135  1_455   S
    Zr12   O125      2.74136      .   S
    N122   O126      1.68963      .   S
    Zr20   O126      2.82666  1_655   S
    N127   O128      1.65234      .   S
    Zr10   O128      2.74276      .   S
    N127   O129      1.65139      .   S
    Zr3    O129      2.74129      .   S
    N127   O130      1.69007  1_455   S
    Zr31   O130      2.82728      .   S
    N127   O131      1.69051      .   S
    Zr27   O131      2.82812      .   S
    N132   O133      1.65116      .   S
    Zr4    O133      2.74043  1_554   S
    N132   O134      1.65183      .   S
    Zr9    O134      2.74208      .   S
    N132   O135      1.68996      .   S
    Zr17   O135      2.82700      .   S
    N132   O136      1.69029      .   S
    Zr21   O136      2.82775      .   S
    N137   O138      1.65214      .   S
    Zr3    O138      2.74301      .   S
    N137   O139      1.69014      .   S
    Zr22   O139      2.82782  1_655   S
    N137   O140      1.69029      .   S
    Zr18   O140      2.82809      .   S
    N137   O141      1.65254  1_455   S
    Zr14   O141      2.74324      .   S
    N142   O143      1.68964      .   S
    Zr28   O143      2.82672      .   S
    N142   O144      1.65158      .   S
    Zr13   O144      2.74165  1_556   S
    N142   O145      1.69020      .   S
    Zr24   O145      2.82785      .   S
    N142   O146      1.65189      .   S
    Zr4    O146      2.74176      .   S
    N147   O148      1.68989      .   S
    Zr11   O148      2.82705      .   S
    N147   O149      1.65119      .   S
    Zr27   O149      2.74091      .   S
    N147   O150      1.65177  1_455   S
    Zr21   O150      2.74107  1_545   S
    N147   O151      1.69033  1_455   S
    Zr15   O151      2.82777      .   S
    N152   O153      1.69011      .   S
    Zr2    O153      2.82745  1_455   S
    N152   O154      1.69016      .   S
    Zr6    O154      2.82730      .   S
    N152   O155      1.65172      .   S
    Zr22   O155      2.74198      .   S
    N152   O156      1.65192      .   S
    Zr28   O156      2.74222      .   S
    N157   O158      1.65215      .   S
    Zr18   O158      2.74315      .   S
    N157   O159      1.69050      .   S
    Zr12   O159      2.82826      .   S
    N157   O160      1.65242      .   S
    Zr28   O160      2.74297      .   S
    N157   O161      1.69024      .   S
    Zr8    O161      2.82796      .   S
    N162   O163      1.65166      .   S
    Zr6    O163      2.74153  1_554   S
    N162   O164      1.69000      .   S
    Zr19   O164      2.82769      .   S
    N162   O165      1.65172      .   S
    Zr11   O165      2.74190      .   S
    N162   O166      1.69006      .   S
    Zr23   O166      2.82765      .   S
    N167   O168      1.65160      .   S
    Zr9    O168      2.74160  1_556   S
    N167   O169      1.68969      .   S
    Zr24   O169      2.82676      .   S
    N167   O170      1.69025  1_455   S
    Zr28   O170      2.82790      .   S
    N167   O171      1.65190      .   S
    Zr0    O171      2.74181      .   S
    N172   O173      1.69067      .   S
    Zr9    O173      2.82798      .   S
    N172   O174      1.69109  1_455   S
    Zr13   O174      2.82873      .   S
    N172   O175      1.65193  1_455   S
    Zr23   O175      2.74247      .   S
    N172   O176      1.65069      .   S
    Zr25   O176      2.74052      .   S
    N177   O178      1.69025      .   S
    Zr11   O178      2.82771      .   S
    N177   O179      1.65155      .   S
    Zr17   O179      2.74124  1_545   S
    N177   O180      1.65138      .   S
    Zr31   O180      2.74066      .   S
    N177   O181      1.69001      .   S
    Zr15   O181      2.82689      .   S
    N182   O183      1.65171      .   S
    Zr30   O183      2.74149      .   S
    N182   O184      1.69026      .   S
    Zr10   O184      2.82803      .   S
    N182   O185      1.65175      .   S
    Zr16   O185      2.74167  1_545   S
    N182   O186      1.69015      .   S
    Zr14   O186      2.82783      .   S
    N187   O188      1.69000      .   S
    Zr21   O188      2.82714  1_655   S
    N187   O189      1.65115      .   S
    Zr0    O189      2.74031  1_554   S
    N187   O190      1.65189  1_455   S
    Zr13   O190      2.74207      .   S
    N187   O191      1.69029      .   S
    Zr17   O191      2.82776      .   S
    Zr26   O192      2.35413  1_565   S
    N122   O192      1.34807      .   S
    Zr12   O193      2.35480      .   S
    N47    O193      1.34827      .   S
    Zr11   O194      2.35345  1_556   S
    N72    O194      1.34773      .   S
    Zr15   O195      2.35341  1_556   S
    N152   O195      1.34772      .   S
    Zr5    O196      2.35528      .   S
    N157   O196      1.34868      .   S
    Zr14   O197      2.35503      .   S
    N52    O197      1.34844      .   S
    Zr25   O198      2.35459      .   S
    N97    O198      1.34816      .   S
    Zr29   O199      2.35460      .   S
    N162   O199      1.34813      .   S
    Zr28   O200      2.35520      .   S
    N92    O200      1.34850      .   S
    Zr30   O201      2.35417  1_565   S
    N77    O201      1.34806      .   S
    Zr6    O202      2.35349  1_554   S
    N177   O202      1.34769      .   S
    Zr8    O203      2.35477      .   S
    N42    O203      1.34824      .   S
    Zr17   O204      2.35413  1_545   S
    N67    O204      1.34802      .   S
    Zr21   O205      2.35413  1_645   S
    N127   O205      1.34804      .   S
    Zr10   O206      2.35503      .   S
    N37    O206      1.34845      .   S
    Zr4    O207      2.35461  1_554   S
    N87    O207      1.34819      .   S
    Zr23   O208      2.35528  1_655   S
    N57    O208      1.34855      .   S
    Zr22   O209      2.35422  1_655   S
    N167   O209      1.34807      .   S
    N82    O210      1.34750      .   S
    Zr13   O210      2.35285  1_556   S
    Zr19   O211      2.35524      .   S
    N62    O211      1.34854      .   S
    Zr3    O212      2.35499      .   S
    N32    O212      1.34820      .   S
    Zr20   O213      2.35378  1_645   S
    N107   O213      1.34781      .   S
    Zr24   O214      2.35523      .   S
    N137   O214      1.34852      .   S
    Zr27   O215      2.35373  1_565   S
    N187   O215      1.34781      .   S
    Zr0    O216      2.35506  1_554   S
    N172   O216      1.34870      .   S
    Zr16   O217      2.35388  1_545   S
    N102   O217      1.34788      .   S
    Zr18   O218      2.35430      .   S
    N142   O218      1.34809      .   S
    Zr9    O219      2.35284  1_556   S
    N112   O219      1.34736      .   S
    Zr31   O220      2.35370  1_565   S
    N132   O220      1.34780      .   S
    Zr1    O221      2.35422      .   S
    N117   O221      1.34822      .   S
    Zr2    O222      2.35351  1_554   S
    N147   O222      1.34765      .   S
    Zr7    O223      2.35492      .   S
    N182   O223      1.34826      .   S
