# CIF file generated by openbabel 2.4.90, see http://openbabel.sf.net
data_I
_chemical_name_common ''
_cell_length_a 14.678
_cell_length_b 21.376
_cell_length_c 21.376
_cell_angle_alpha 83.236
_cell_angle_beta 69.927
_cell_angle_gamma 69.929
_space_group_name_H-M_alt 'P 1'
_space_group_name_Hall 'P 1'
loop_
    _symmetry_equiv_pos_as_xyz
    x,y,z
loop_
    _atom_site_label
    _atom_site_type_symbol
    _atom_site_fract_x
    _atom_site_fract_y
    _atom_site_fract_z
    _atom_site_occupancy
    Zr0     Zr   0.06255   0.23096   0.01889   1.000
    Zr1     Zr   0.06250   0.23090   0.51910   1.000
    Zr2     Zr   0.06240   0.73109   0.01916   1.000
    Zr3     Zr   0.06242   0.73112   0.51888   1.000
    Zr4     Zr   0.56254   0.23096   0.01890   1.000
    Zr5     Zr   0.56249   0.23090   0.51917   1.000
    Zr6     Zr   0.56240   0.73109   0.01916   1.000
    Zr7     Zr   0.56241   0.73112   0.51888   1.000
    Zr8     Zr   0.31251   0.26890   0.48108   1.000
    Zr9     Zr   0.31253   0.26893   0.98088   1.000
    Zr10    Zr   0.31249   0.76913   0.48082   1.000
    Zr11    Zr   0.31250   0.76908   0.98115   1.000
    Zr12    Zr   0.81251   0.26890   0.48108   1.000
    Zr13    Zr   0.81252   0.26893   0.98088   1.000
    Zr14    Zr   0.81248   0.76913   0.48082   1.000
    Zr15    Zr   0.81249   0.76908   0.98115   1.000
    Zr16    Zr   0.41846   0.01921   0.26888   1.000
    Zr17    Zr   0.41851   0.01887   0.76912   1.000
    Zr18    Zr   0.41860   0.51891   0.26893   1.000
    Zr19    Zr   0.41835   0.51922   0.76907   1.000
    Zr20    Zr   0.91846   0.01921   0.26888   1.000
    Zr21    Zr   0.91851   0.01886   0.76912   1.000
    Zr22    Zr   0.91859   0.51891   0.26892   1.000
    Zr23    Zr   0.91834   0.51922   0.76907   1.000
    Zr24    Zr   0.20672   0.48084   0.23088   1.000
    Zr25    Zr   0.20647   0.48111   0.73110   1.000
    Zr26    Zr   0.20653   0.98111   0.23089   1.000
    Zr27    Zr   0.20659   0.98084   0.73112   1.000
    Zr28    Zr   0.70672   0.48084   0.23088   1.000
    Zr29    Zr   0.70647   0.48111   0.73109   1.000
    Zr30    Zr   0.70652   0.98111   0.23089   1.000
    Zr31    Zr   0.70658   0.98085   0.73112   1.000
    N32     N    0.06234   0.86169   0.38861   1.000
    O33     O    0.08977   0.81291   0.43479   1.000
    O34     O    0.15228   0.82241   0.42527   1.000
    O35     O    0.12836   0.90343   0.33216   1.000
    O36     O    0.99636   0.91812   0.34683   1.000
    O37     O    0.03498   0.81539   0.43727   1.000
    O38     O    0.97250   0.82489   0.42776   1.000
    N39     N    0.31220   0.63893   0.61148   1.000
    O40     O    0.22491   0.67556   0.57215   1.000
    O41     O    0.28742   0.68507   0.56264   1.000
    O42     O    0.36345   0.59720   0.66798   1.000
    O43     O    0.26099   0.58242   0.65326   1.000
    O44     O    0.39968   0.67808   0.57466   1.000
    O45     O    0.33720   0.68758   0.56514   1.000
    N46     N    0.31256   0.13842   0.61143   1.000
    O47     O    0.39996   0.17765   0.57473   1.000
    O48     O    0.33747   0.18715   0.56521   1.000
    O49     O    0.22514   0.17519   0.57223   1.000
    O50     O    0.28765   0.18469   0.56272   1.000
    O51     O    0.26122   0.08201   0.65323   1.000
    O52     O    0.36387   0.09664   0.66788   1.000
    N53     N    0.81255   0.13842   0.61144   1.000
    O54     O    0.86386   0.09664   0.66788   1.000
    O55     O    0.72513   0.17519   0.57225   1.000
    O56     O    0.78764   0.18469   0.56273   1.000
    O57     O    0.89996   0.17765   0.57471   1.000
    O58     O    0.83746   0.18715   0.56521   1.000
    O59     O    0.76121   0.08201   0.65324   1.000
    N60     N    0.81219   0.63893   0.61147   1.000
    O61     O    0.86345   0.59720   0.66798   1.000
    O62     O    0.72490   0.67556   0.57215   1.000
    O63     O    0.78742   0.68507   0.56264   1.000
    O64     O    0.89968   0.67808   0.57466   1.000
    O65     O    0.83720   0.68758   0.56514   1.000
    O66     O    0.76099   0.58242   0.65326   1.000
    N67     N    0.04885   0.38860   0.63880   1.000
    O68     O    0.97520   0.43494   0.68745   1.000
    O69     O    0.92223   0.42541   0.67795   1.000
    O70     O    0.02748   0.43742   0.68498   1.000
    O71     O    0.09951   0.42789   0.67549   1.000
    O72     O    0.15660   0.34678   0.58234   1.000
    O73     O    0.03933   0.33209   0.59706   1.000
    N74     N    0.54884   0.38860   0.63880   1.000
    O75     O    0.47519   0.43494   0.68745   1.000
    O76     O    0.42222   0.42541   0.67796   1.000
    O77     O    0.53932   0.33209   0.59708   1.000
    O78     O    0.65659   0.34678   0.58234   1.000
    O79     O    0.52747   0.43742   0.68498   1.000
    O80     O    0.59950   0.42789   0.67548   1.000
    N81     N    0.54887   0.88849   0.63873   1.000
    O82     O    0.52760   0.93713   0.68501   1.000
    O83     O    0.59962   0.92763   0.67551   1.000
    O84     O    0.53924   0.83219   0.59685   1.000
    O85     O    0.47527   0.93478   0.68742   1.000
    O86     O    0.42229   0.92527   0.67792   1.000
    O87     O    0.65662   0.84671   0.58224   1.000
    N88     N    0.31259   0.63856   0.11133   1.000
    O89     O    0.22504   0.67539   0.07224   1.000
    O90     O    0.28757   0.68489   0.06274   1.000
    O91     O    0.26131   0.58210   0.15310   1.000
    O92     O    0.36398   0.59672   0.16771   1.000
    O93     O    0.39994   0.67782   0.07464   1.000
    O94     O    0.33747   0.68731   0.06514   1.000
    N95     N    0.57604   0.11151   0.36126   1.000
    O96     O    0.70270   0.07240   0.32448   1.000
    O97     O    0.64971   0.06287   0.31498   1.000
    O98     O    0.58556   0.15328   0.41776   1.000
    O99     O    0.52543   0.07476   0.32204   1.000
    O100    O    0.59745   0.06524   0.31255   1.000
    O101    O    0.46828   0.16780   0.40314   1.000
    N102    N    0.81269   0.13855   0.11115   1.000
    O103    O    0.90010   0.17774   0.07440   1.000
    O104    O    0.83759   0.18723   0.06489   1.000
    O105    O    0.72515   0.17536   0.07205   1.000
    O106    O    0.78764   0.18485   0.06255   1.000
    O107    O    0.76126   0.08222   0.15302   1.000
    O108    O    0.86408   0.09677   0.16752   1.000
    N109    N    0.56268   0.36128   0.88841   1.000
    O110    O    0.49672   0.41777   0.84662   1.000
    O111    O    0.58994   0.31261   0.93475   1.000
    O112    O    0.65244   0.32210   0.92524   1.000
    O113    O    0.62860   0.40316   0.83215   1.000
    O114    O    0.53526   0.31502   0.93706   1.000
    O115    O    0.47276   0.32451   0.92755   1.000
    N116    N    0.57623   0.61149   0.36110   1.000
    O117    O    0.52556   0.57472   0.32193   1.000
    O118    O    0.59759   0.56520   0.31241   1.000
    O119    O    0.70283   0.57219   0.32445   1.000
    O120    O    0.64986   0.56267   0.31494   1.000
    O121    O    0.58570   0.65326   0.41760   1.000
    O122    O    0.46846   0.66798   0.40288   1.000
    N123    N    0.07602   0.61139   0.86163   1.000
    O124    O    0.96828   0.66783   0.90340   1.000
    O125    O    0.20262   0.57223   0.82485   1.000
    O126    O    0.14965   0.56270   0.81536   1.000
    O127    O    0.02534   0.57472   0.82236   1.000
    O128    O    0.09737   0.56520   0.81287   1.000
    O129    O    0.08558   0.65319   0.91804   1.000
    N130    N    0.54877   0.88871   0.13864   1.000
    O131    O    0.53915   0.83238   0.09681   1.000
    O132    O    0.65659   0.84680   0.08233   1.000
    O133    O    0.47517   0.93505   0.18726   1.000
    O134    O    0.42219   0.92552   0.17776   1.000
    O135    O    0.52749   0.93738   0.18490   1.000
    O136    O    0.59951   0.92786   0.17540   1.000
    N137    N    0.04877   0.88871   0.13865   1.000
    O138    O    0.97517   0.93505   0.18726   1.000
    O139    O    0.92219   0.92552   0.17776   1.000
    O140    O    0.03915   0.83239   0.09682   1.000
    O141    O    0.15659   0.84680   0.08235   1.000
    O142    O    0.02749   0.93738   0.18490   1.000
    O143    O    0.09951   0.92786   0.17540   1.000
    N144    N    0.31271   0.13855   0.11113   1.000
    O145    O    0.40010   0.17774   0.07440   1.000
    O146    O    0.33760   0.18723   0.06489   1.000
    O147    O    0.36409   0.09677   0.16751   1.000
    O148    O    0.22516   0.17535   0.07204   1.000
    O149    O    0.28765   0.18484   0.06253   1.000
    O150    O    0.26127   0.08221   0.15300   1.000
    N151    N    0.06263   0.36117   0.38858   1.000
    O152    O    0.99664   0.41765   0.34679   1.000
    O153    O    0.03519   0.31499   0.43737   1.000
    O154    O    0.97269   0.32449   0.42787   1.000
    O155    O    0.08996   0.31250   0.43486   1.000
    O156    O    0.15247   0.32200   0.42536   1.000
    O157    O    0.12865   0.40292   0.33207   1.000
    N158    N    0.07605   0.11151   0.36126   1.000
    O159    O    0.08557   0.15329   0.41774   1.000
    O160    O    0.20270   0.07240   0.32447   1.000
    O161    O    0.14972   0.06287   0.31498   1.000
    O162    O    0.96828   0.16780   0.40314   1.000
    O163    O    0.02544   0.07476   0.32204   1.000
    O164    O    0.09745   0.06524   0.31255   1.000
    N165    N    0.04887   0.88849   0.63872   1.000
    O166    O    0.15663   0.84670   0.58225   1.000
    O167    O    0.03925   0.83219   0.59683   1.000
    O168    O    0.97526   0.93477   0.68742   1.000
    O169    O    0.92228   0.92527   0.67792   1.000
    O170    O    0.02760   0.93713   0.68501   1.000
    O171    O    0.09962   0.92762   0.67551   1.000
    N172    N    0.57615   0.11111   0.86158   1.000
    O173    O    0.58571   0.15303   0.91786   1.000
    O174    O    0.46836   0.16752   0.90334   1.000
    O175    O    0.52549   0.07434   0.82239   1.000
    O176    O    0.59751   0.06484   0.81289   1.000
    O177    O    0.70278   0.07202   0.82477   1.000
    O178    O    0.64980   0.06251   0.81527   1.000
    N179    N    0.07623   0.61150   0.36110   1.000
    O180    O    0.08571   0.65326   0.41761   1.000
    O181    O    0.02556   0.57472   0.32192   1.000
    O182    O    0.09759   0.56520   0.31241   1.000
    O183    O    0.20284   0.57219   0.32445   1.000
    O184    O    0.14987   0.56267   0.31494   1.000
    O185    O    0.96846   0.66798   0.40288   1.000
    N186    N    0.54909   0.38853   0.13853   1.000
    O187    O    0.52770   0.43724   0.18480   1.000
    O188    O    0.59973   0.42772   0.17528   1.000
    O189    O    0.65682   0.34674   0.08211   1.000
    O190    O    0.47544   0.43477   0.18723   1.000
    O191    O    0.42247   0.42525   0.17772   1.000
    O192    O    0.53951   0.33214   0.09670   1.000
    N193    N    0.06253   0.86145   0.88882   1.000
    O194    O    0.08980   0.81282   0.93513   1.000
    O195    O    0.15233   0.82232   0.92562   1.000
    O196    O    0.12850   0.90324   0.83246   1.000
    O197    O    0.99663   0.91772   0.84689   1.000
    O198    O    0.03515   0.81517   0.93746   1.000
    O199    O    0.97267   0.82466   0.92795   1.000
    N200    N    0.81258   0.63856   0.11132   1.000
    O201    O    0.89993   0.67782   0.07464   1.000
    O202    O    0.83746   0.68732   0.06514   1.000
    O203    O    0.72504   0.67539   0.07224   1.000
    O204    O    0.78756   0.68489   0.06273   1.000
    O205    O    0.86397   0.59672   0.16770   1.000
    O206    O    0.76130   0.58210   0.15310   1.000
    N207    N    0.56263   0.36117   0.38854   1.000
    O208    O    0.49665   0.41765   0.34678   1.000
    O209    O    0.58996   0.31250   0.43486   1.000
    O210    O    0.65247   0.32199   0.42534   1.000
    O211    O    0.62865   0.40292   0.33204   1.000
    O212    O    0.53519   0.31499   0.43736   1.000
    O213    O    0.47270   0.32449   0.42784   1.000
    N214    N    0.57602   0.61139   0.86162   1.000
    O215    O    0.58558   0.65319   0.91803   1.000
    O216    O    0.52534   0.57472   0.82235   1.000
    O217    O    0.59737   0.56520   0.81286   1.000
    O218    O    0.46829   0.66783   0.90337   1.000
    O219    O    0.70262   0.57223   0.82484   1.000
    O220    O    0.64965   0.56270   0.81534   1.000
    N221    N    0.04909   0.38854   0.13852   1.000
    O222    O    0.15682   0.34675   0.08211   1.000
    O223    O    0.02771   0.43724   0.18479   1.000
    O224    O    0.09974   0.42772   0.17528   1.000
    O225    O    0.97544   0.43477   0.18722   1.000
    O226    O    0.92247   0.42525   0.17771   1.000
    O227    O    0.03951   0.33214   0.09669   1.000
    N228    N    0.06268   0.36128   0.88833   1.000
    O229    O    0.08995   0.31261   0.93471   1.000
    O230    O    0.15244   0.32210   0.92521   1.000
    O231    O    0.03526   0.31502   0.93702   1.000
    O232    O    0.97276   0.32451   0.92751   1.000
    O233    O    0.99672   0.41777   0.84658   1.000
    O234    O    0.12860   0.40317   0.83212   1.000
    N235    N    0.56253   0.86145   0.88882   1.000
    O236    O    0.53515   0.81517   0.93745   1.000
    O237    O    0.47267   0.82467   0.92795   1.000
    O238    O    0.49663   0.91772   0.84690   1.000
    O239    O    0.62849   0.90324   0.83244   1.000
    O240    O    0.58980   0.81282   0.93514   1.000
    O241    O    0.65232   0.82232   0.92563   1.000
    N242    N    0.56232   0.86169   0.38861   1.000
    O243    O    0.62835   0.90343   0.33216   1.000
    O244    O    0.47250   0.82490   0.42777   1.000
    O245    O    0.53498   0.81540   0.43729   1.000
    O246    O    0.49636   0.91813   0.34684   1.000
    O247    O    0.58975   0.81291   0.43479   1.000
    O248    O    0.65227   0.82241   0.42527   1.000
    N249    N    0.07615   0.11111   0.86158   1.000
    O250    O    0.09751   0.06484   0.81289   1.000
    O251    O    0.02549   0.07434   0.82239   1.000
    O252    O    0.08572   0.15303   0.91786   1.000
    O253    O    0.96836   0.16752   0.90335   1.000
    O254    O    0.20278   0.07202   0.82477   1.000
    O255    O    0.14980   0.06251   0.81527   1.000
loop_
    _geom_bond_atom_site_label_1
    _geom_bond_atom_site_label_2
    _geom_bond_distance
    _geom_bond_site_symmetry_2
    _ccdc_geom_bond_type
    N32    O33       1.40215      .   S
    Zr3    O33       2.38641      .   S
    N32    O34       1.69017      .   S
    Zr10   O34       2.82782      .   S
    N32    O35       1.65173      .   S
    Zr26   O35       2.74150      .   S
    N32    O36       1.65179  1_455   S
    Zr20   O36       2.74170  1_545   S
    N32    O37       1.40227      .   S
    Zr3    O37       2.38623      .   S
    N32    O38       1.69029  1_455   S
    Zr14   O38       2.82811      .   S
    N39    O40       1.69028      .   S
    Zr3    O40       2.82792      .   S
    N39    O41       1.40239      .   S
    Zr10   O41       2.38644      .   S
    N39    O42       1.65216      .   S
    Zr19   O42       2.74265      .   S
    N39    O43       1.65228      .   S
    Zr25   O43       2.74321      .   S
    N39    O44       1.69034      .   S
    Zr7    O44       2.82811      .   S
    N39    O45       1.40247      .   S
    Zr10   O45       2.38626      .   S
    N46    O47       1.69033      .   S
    Zr5    O47       2.82805      .   S
    N46    O48       1.40216      .   S
    Zr8    O48       2.38621      .   S
    N46    O49       1.69026      .   S
    Zr1    O49       2.82814      .   S
    N46    O50       1.40231      .   S
    Zr8    O50       2.38596      .   S
    N46    O51       1.65164      .   S
    Zr27   O51       2.74173  1_565   S
    N46    O52       1.65204      .   S
    Zr17   O52       2.74214      .   S
    N53    O54       1.65201      .   S
    Zr21   O54       2.74212      .   S
    N53    O55       1.69002      .   S
    Zr5    O55       2.82749      .   S
    N53    O56       1.40232      .   S
    Zr12   O56       2.38600      .   S
    N53    O57       1.69044      .   S
    Zr1    O57       2.82829  1_455   S
    N53    O58       1.40219      .   S
    Zr12   O58       2.38625      .   S
    N53    O59       1.65162      .   S
    Zr31   O59       2.74169  1_565   S
    N60    O61       1.65219      .   S
    Zr23   O61       2.74267      .   S
    N60    O62       1.69027      .   S
    Zr7    O62       2.82793      .   S
    N60    O63       1.40238      .   S
    Zr14   O63       2.38644      .   S
    N60    O64       1.69037      .   S
    Zr3    O64       2.82821  1_455   S
    N60    O65       1.40247      .   S
    Zr14   O65       2.38626      .   S
    N60    O66       1.65228      .   S
    Zr29   O66       2.74319      .   S
    N67    O68       1.40253  1_455   S
    Zr23   O68       2.38654      .   S
    N67    O69       1.69039  1_455   S
    Zr29   O69       2.82816      .   S
    N67    O70       1.40252      .   S
    Zr23   O70       2.38665  1_655   S
    N67    O71       1.69032      .   S
    Zr25   O71       2.82807      .   S
    N67    O72       1.65256      .   S
    Zr8    O72       2.74356      .   S
    N67    O73       1.65231      .   S
    Zr1    O73       2.74346      .   S
    N74    O75       1.40251      .   S
    Zr19   O75       2.38650      .   S
    N74    O76       1.69033      .   S
    Zr25   O76       2.82808      .   S
    N74    O77       1.65210      .   S
    Zr5    O77       2.74276      .   S
    N74    O78       1.65257      .   S
    Zr12   O78       2.74359      .   S
    N74    O79       1.40251      .   S
    Zr19   O79       2.38660      .   S
    N74    O80       1.69026      .   S
    Zr29   O80       2.82795      .   S
    N81    O82       1.40174      .   S
    Zr17   O82       2.38593  1_545   S
    N81    O83       1.69047      .   S
    Zr31   O83       2.82807      .   S
    N81    O84       1.65130      .   S
    Zr7    O84       2.74146      .   S
    N81    O85       1.40230      .   S
    Zr17   O85       2.38499  1_545   S
    N81    O86       1.68999      .   S
    Zr27   O86       2.82721      .   S
    N81    O87       1.65244      .   S
    Zr14   O87       2.74266      .   S
    N88    O89       1.69019      .   S
    Zr2    O89       2.82741      .   S
    N88    O90       1.40151      .   S
    Zr11   O90       2.38522  1_556   S
    N88    O91       1.65191      .   S
    Zr24   O91       2.74220      .   S
    N88    O92       1.65171      .   S
    Zr18   O92       2.74204      .   S
    N88    O93       1.69008      .   S
    Zr6    O93       2.82733      .   S
    N88    O94       1.40202      .   S
    Zr11   O94       2.38439  1_556   S
    N95    O96       1.69049      .   S
    Zr20   O96       2.82806      .   S
    N95    O97       1.40186      .   S
    Zr30   O97       2.38583  1_565   S
    N95    O98       1.65248      .   S
    Zr5    O98       2.74311      .   S
    N95    O99       1.68962      .   S
    Zr16   O99       2.82655      .   S
    N95    O100      1.40224      .   S
    Zr30   O100      2.38515  1_565   S
    N95    O101      1.65130      .   S
    Zr8    O101      2.74132      .   S
    N102   O103      1.68981      .   S
    Zr0    O103      2.82660  1_455   S
    N102   O104      1.40159      .   S
    Zr13   O104      2.38411  1_556   S
    N102   O105      1.69027      .   S
    Zr4    O105      2.82772      .   S
    N102   O106      1.40146      .   S
    Zr13   O106      2.38430  1_556   S
    N102   O107      1.65157      .   S
    Zr30   O107      2.74118  1_565   S
    N102   O108      1.65129      .   S
    Zr20   O108      2.74098      .   S
    N109   O110      1.65245      .   S
    Zr19   O110      2.74303      .   S
    N109   O111      1.40263      .   S
    Zr4    O111      2.38522  1_554   S
    N109   O112      1.69008      .   S
    Zr13   O112      2.82738      .   S
    N109   O113      1.65107      .   S
    Zr29   O113      2.74106      .   S
    N109   O114      1.40177      .   S
    Zr4    O114      2.38667  1_554   S
    N109   O115      1.69088      .   S
    Zr9    O115      2.82860      .   S
    N116   O117      1.69006      .   S
    Zr18   O117      2.82760      .   S
    N116   O118      1.40234      .   S
    Zr28   O118      2.38673      .   S
    N116   O119      1.69028      .   S
    Zr22   O119      2.82809      .   S
    N116   O120      1.40260      .   S
    Zr28   O120      2.38630      .   S
    N116   O121      1.65201      .   S
    Zr7    O121      2.74319      .   S
    N116   O122      1.65250      .   S
    Zr10   O122      2.74321      .   S
    N123   O124      1.65184  1_455   S
    Zr15   O124      2.74172      .   S
    N123   O125      1.69010      .   S
    Zr19   O125      2.82771      .   S
    N123   O126      1.40226      .   S
    Zr25   O126      2.38575      .   S
    N123   O127      1.69008      .   S
    Zr23   O127      2.82784  1_655   S
    N123   O128      1.40203      .   S
    Zr25   O128      2.38607      .   S
    N123   O129      1.65159      .   S
    Zr2    O129      2.74137  1_554   S
    N130   O131      1.65098      .   S
    Zr6    O131      2.74063      .   S
    N130   O132      1.65197      .   S
    Zr15   O132      2.74126  1_556   S
    N130   O133      1.40196      .   S
    Zr16   O133      2.38507  1_545   S
    N130   O134      1.68981      .   S
    Zr26   O134      2.82672      .   S
    N130   O135      1.40180      .   S
    Zr16   O135      2.38535  1_545   S
    N130   O136      1.69015      .   S
    Zr30   O136      2.82740      .   S
    N137   O138      1.40193  1_455   S
    Zr20   O138      2.38495  1_545   S
    N137   O139      1.68986  1_455   S
    Zr30   O139      2.82680      .   S
    N137   O140      1.65103      .   S
    Zr2    O140      2.74071      .   S
    N137   O141      1.65186      .   S
    Zr11   O141      2.74156  1_556   S
    N137   O142      1.40171      .   S
    Zr20   O142      2.38529  1_645   S
    N137   O143      1.69011      .   S
    Zr26   O143      2.82739      .   S
    N144   O145      1.68971      .   S
    Zr4    O145      2.82645      .   S
    N144   O146      1.40144      .   S
    Zr9    O146      2.38417  1_556   S
    N144   O147      1.65138      .   S
    Zr16   O147      2.74109      .   S
    N144   O148      1.69022      .   S
    Zr0    O148      2.82771      .   S
    N144   O149      1.40138      .   S
    Zr9    O149      2.38424  1_556   S
    N144   O150      1.65158      .   S
    Zr26   O150      2.74122  1_565   S
    N151   O152      1.65250  1_455   S
    Zr22   O152      2.74349      .   S
    N151   O153      1.40231      .   S
    Zr1    O153      2.38539      .   S
    N151   O154      1.69026  1_455   S
    Zr12   O154      2.82799      .   S
    N151   O155      1.40208      .   S
    Zr1    O155      2.38570      .   S
    N151   O156      1.69026      .   S
    Zr8    O156      2.82806      .   S
    N151   O157      1.65249      .   S
    Zr24   O157      2.74337      .   S
    N158   O159      1.65219      .   S
    Zr1    O159      2.74227      .   S
    N158   O160      1.69051      .   S
    Zr16   O160      2.82807      .   S
    N158   O161      1.40189      .   S
    Zr26   O161      2.38575  1_565   S
    N158   O162      1.65135  1_455   S
    Zr12   O162      2.74136      .   S
    N158   O163      1.68963      .   S
    Zr20   O163      2.82666  1_655   S
    N158   O164      1.40221      .   S
    Zr26   O164      2.38515  1_565   S
    N165   O166      1.65234      .   S
    Zr10   O166      2.74276      .   S
    N165   O167      1.65139      .   S
    Zr3    O167      2.74129      .   S
    N165   O168      1.40234  1_455   S
    Zr21   O168      2.38498  1_545   S
    N165   O169      1.69007  1_455   S
    Zr31   O169      2.82728      .   S
    N165   O170      1.40175      .   S
    Zr21   O170      2.38596  1_645   S
    N165   O171      1.69051      .   S
    Zr27   O171      2.82812      .   S
    N172   O173      1.65116      .   S
    Zr4    O173      2.74043  1_554   S
    N172   O174      1.65183      .   S
    Zr9    O174      2.74208      .   S
    N172   O175      1.68996      .   S
    Zr17   O175      2.82700      .   S
    N172   O176      1.40193      .   S
    Zr31   O176      2.38486  1_565   S
    N172   O177      1.69029      .   S
    Zr21   O177      2.82775      .   S
    N172   O178      1.40168      .   S
    Zr31   O178      2.38523  1_565   S
    N179   O180      1.65214      .   S
    Zr3    O180      2.74301      .   S
    N179   O181      1.69014      .   S
    Zr22   O181      2.82782  1_655   S
    N179   O182      1.40236      .   S
    Zr24   O182      2.38675      .   S
    N179   O183      1.69029      .   S
    Zr18   O183      2.82809      .   S
    N179   O184      1.40261      .   S
    Zr24   O184      2.38632      .   S
    N179   O185      1.65254  1_455   S
    Zr14   O185      2.74324      .   S
    N186   O187      1.40208      .   S
    Zr18   O187      2.38556      .   S
    N186   O188      1.68964      .   S
    Zr28   O188      2.82672      .   S
    N186   O189      1.65158      .   S
    Zr13   O189      2.74165  1_556   S
    N186   O190      1.40205      .   S
    Zr18   O190      2.38566      .   S
    N186   O191      1.69020      .   S
    Zr24   O191      2.82785      .   S
    N186   O192      1.65189      .   S
    Zr4    O192      2.74176      .   S
    N193   O194      1.40160      .   S
    Zr2    O194      2.38492  1_554   S
    N193   O195      1.68989      .   S
    Zr11   O195      2.82705      .   S
    N193   O196      1.65119      .   S
    Zr27   O196      2.74091      .   S
    N193   O197      1.65177  1_455   S
    Zr21   O197      2.74107  1_545   S
    N193   O198      1.40174      .   S
    Zr2    O198      2.38479  1_554   S
    N193   O199      1.69033  1_455   S
    Zr15   O199      2.82777      .   S
    N200   O201      1.69011      .   S
    Zr2    O201      2.82745  1_455   S
    N200   O202      1.40200      .   S
    Zr15   O202      2.38435  1_556   S
    N200   O203      1.69016      .   S
    Zr6    O203      2.82730      .   S
    N200   O204      1.40150      .   S
    Zr15   O204      2.38518  1_556   S
    N200   O205      1.65172      .   S
    Zr22   O205      2.74198      .   S
    N200   O206      1.65192      .   S
    Zr28   O206      2.74222      .   S
    N207   O208      1.65215      .   S
    Zr18   O208      2.74315      .   S
    N207   O209      1.40263      .   S
    Zr5    O209      2.38662      .   S
    N207   O210      1.69050      .   S
    Zr12   O210      2.82826      .   S
    N207   O211      1.65242      .   S
    Zr28   O211      2.74297      .   S
    N207   O212      1.40265      .   S
    Zr5    O212      2.38654      .   S
    N207   O213      1.69024      .   S
    Zr8    O213      2.82796      .   S
    N214   O215      1.65166      .   S
    Zr6    O215      2.74153  1_554   S
    N214   O216      1.69000      .   S
    Zr19   O216      2.82769      .   S
    N214   O217      1.40199      .   S
    Zr29   O217      2.38609      .   S
    N214   O218      1.65172      .   S
    Zr11   O218      2.74190      .   S
    N214   O219      1.69006      .   S
    Zr23   O219      2.82765      .   S
    N214   O220      1.40223      .   S
    Zr29   O220      2.38576      .   S
    N221   O222      1.65160      .   S
    Zr9    O222      2.74160  1_556   S
    N221   O223      1.40207      .   S
    Zr22   O223      2.38550  1_655   S
    N221   O224      1.68969      .   S
    Zr24   O224      2.82676      .   S
    N221   O225      1.40203  1_455   S
    Zr22   O225      2.38558      .   S
    N221   O226      1.69025  1_455   S
    Zr28   O226      2.82790      .   S
    N221   O227      1.65190      .   S
    Zr0    O227      2.74181      .   S
    N228   O229      1.40320      .   S
    Zr0    O229      2.38562  1_554   S
    N228   O230      1.69067      .   S
    Zr9    O230      2.82798      .   S
    N228   O231      1.40221      .   S
    Zr0    O231      2.38717  1_554   S
    N228   O232      1.69109  1_455   S
    Zr13   O232      2.82873      .   S
    N228   O233      1.65193  1_455   S
    Zr23   O233      2.74247      .   S
    N228   O234      1.65069      .   S
    Zr25   O234      2.74052      .   S
    N235   O236      1.40168      .   S
    Zr6    O236      2.38487  1_554   S
    N235   O237      1.69025      .   S
    Zr11   O237      2.82771      .   S
    N235   O238      1.65155      .   S
    Zr17   O238      2.74124  1_545   S
    N235   O239      1.65138      .   S
    Zr31   O239      2.74066      .   S
    N235   O240      1.40175      .   S
    Zr6    O240      2.38481  1_554   S
    N235   O241      1.69001      .   S
    Zr15   O241      2.82689      .   S
    N242   O243      1.65171      .   S
    Zr30   O243      2.74149      .   S
    N242   O244      1.69026      .   S
    Zr10   O244      2.82803      .   S
    N242   O245      1.40236      .   S
    Zr7    O245      2.38608      .   S
    N242   O246      1.65175      .   S
    Zr16   O246      2.74167  1_545   S
    N242   O247      1.40214      .   S
    Zr7    O247      2.38641      .   S
    N242   O248      1.69015      .   S
    Zr14   O248      2.82783      .   S
    N249   O250      1.40195      .   S
    Zr27   O250      2.38489  1_565   S
    N249   O251      1.69000      .   S
    Zr21   O251      2.82714  1_655   S
    N249   O252      1.65115      .   S
    Zr0    O252      2.74031  1_554   S
    N249   O253      1.65189  1_455   S
    Zr13   O253      2.74207      .   S
    N249   O254      1.69029      .   S
    Zr17   O254      2.82776      .   S
    N249   O255      1.40170      .   S
    Zr27   O255      2.38526  1_565   S
