# CIF file generated by openbabel 2.4.90, see http://openbabel.sf.net
data_I
_chemical_name_common ''
_cell_length_a 14.926
_cell_length_b 19.994
_cell_length_c 20.525
_cell_angle_alpha 89.998
_cell_angle_beta 94.364
_cell_angle_gamma 89.993
_space_group_name_H-M_alt 'P 1'
_space_group_name_Hall 'P 1'
loop_
    _symmetry_equiv_pos_as_xyz
    x,y,z
loop_
    _atom_site_label
    _atom_site_type_symbol
    _atom_site_fract_x
    _atom_site_fract_y
    _atom_site_fract_z
    _atom_site_occupancy
    H0      H    0.39504   0.52871   0.33741   1.000
    H1      H    0.32507   0.41463   0.00208   1.000
    H2      H    0.09423   0.47302   0.33950   1.000
    H3      H    0.18118   0.58152   0.01407   1.000
    H4      H    0.35053   0.56755   0.24517   1.000
    H5      H    0.36089   0.59141   0.12773   1.000
    H6      H    0.37802   0.38005   0.08863   1.000
    H7      H    0.36298   0.35643   0.20562   1.000
    H8      H    0.40997   0.56238   0.55803   1.000
    H9      H    0.40778   0.57651   0.43740   1.000
    H10     H    0.31803   0.37165   0.41759   1.000
    H11     H    0.32329   0.36600   0.53919   1.000
    H12     H    0.44266   0.54222   0.79098   1.000
    H13     H    0.43073   0.55217   0.91133   1.000
    H14     H    0.29165   0.36240   0.90252   1.000
    H15     H    0.30646   0.36191   0.78236   1.000
    H16     H    0.12790   0.64502   0.20950   1.000
    H17     H    0.11444   0.62044   0.09063   1.000
    H18     H    0.12367   0.40938   0.13330   1.000
    H19     H    0.13217   0.43398   0.25159   1.000
    H20     H    0.17244   0.63682   0.54745   1.000
    H21     H    0.17144   0.63111   0.42598   1.000
    H22     H    0.08727   0.42518   0.43877   1.000
    H23     H    0.09060   0.43950   0.55925   1.000
    H24     H    0.22201   0.63219   0.79857   1.000
    H25     H    0.22625   0.63195   0.92019   1.000
    H26     H    0.07521   0.44740   0.90716   1.000
    H27     H    0.07629   0.45609   0.78591   1.000
    H28     H    0.25100   0.71169   0.67555   1.000
    H29     H    0.32099   0.83261   0.67433   1.000
    H30     H    0.26187   0.28773   0.66992   1.000
    H31     H    0.19049   0.16725   0.66850   1.000
    H32     H    0.10500   0.02871   0.66259   1.000
    H33     H    0.17498   0.91463   0.99793   1.000
    H34     H    0.40579   0.97302   0.66000   1.000
    H35     H    0.31881   0.08152   0.98592   1.000
    H36     H    0.14949   0.06754   0.75483   1.000
    H37     H    0.13914   0.09141   0.87226   1.000
    H38     H    0.12203   0.88006   0.91139   1.000
    H39     H    0.13706   0.85642   0.79440   1.000
    H40     H    0.09005   0.06236   0.44197   1.000
    H41     H    0.09227   0.07650   0.56252   1.000
    H42     H    0.18199   0.87161   0.58243   1.000
    H43     H    0.17671   0.86595   0.46083   1.000
    H44     H    0.05736   0.04222   0.20902   1.000
    H45     H    0.06931   0.05217   0.08868   1.000
    H46     H    0.20838   0.86237   0.09750   1.000
    H47     H    0.19355   0.86188   0.21765   1.000
    H48     H    0.37211   0.14502   0.79048   1.000
    H49     H    0.38556   0.12044   0.90937   1.000
    H50     H    0.37636   0.90938   0.86670   1.000
    H51     H    0.36788   0.93399   0.74841   1.000
    H52     H    0.32762   0.13685   0.45255   1.000
    H53     H    0.32861   0.13114   0.57402   1.000
    H54     H    0.41274   0.92518   0.56123   1.000
    H55     H    0.40941   0.93951   0.44075   1.000
    H56     H    0.27802   0.13222   0.20142   1.000
    H57     H    0.27375   0.13197   0.07979   1.000
    H58     H    0.42481   0.94739   0.09285   1.000
    H59     H    0.42375   0.95610   0.21410   1.000
    H60     H    0.24903   0.21165   0.32444   1.000
    H61     H    0.17904   0.33259   0.32567   1.000
    H62     H    0.23816   0.78777   0.33008   1.000
    H63     H    0.30953   0.66727   0.33145   1.000
    H64     H    0.60500   0.47130   0.66259   1.000
    H65     H    0.67497   0.58538   0.99792   1.000
    H66     H    0.90581   0.52699   0.66050   1.000
    H67     H    0.81886   0.41849   0.98593   1.000
    H68     H    0.64951   0.43246   0.75483   1.000
    H69     H    0.63916   0.40860   0.87227   1.000
    H70     H    0.62202   0.61995   0.91137   1.000
    H71     H    0.63706   0.64358   0.79438   1.000
    H72     H    0.59007   0.43763   0.44197   1.000
    H73     H    0.59226   0.42349   0.56250   1.000
    H74     H    0.68201   0.62836   0.58241   1.000
    H75     H    0.67675   0.63401   0.46081   1.000
    H76     H    0.55738   0.45778   0.20902   1.000
    H77     H    0.56931   0.44784   0.08860   1.000
    H78     H    0.70839   0.63761   0.09748   1.000
    H79     H    0.69358   0.63810   0.21764   1.000
    H80     H    0.87215   0.35499   0.79040   1.000
    H81     H    0.88561   0.37957   0.90937   1.000
    H82     H    0.87637   0.59063   0.86670   1.000
    H83     H    0.86787   0.56603   0.74841   1.000
    H84     H    0.82760   0.36319   0.45250   1.000
    H85     H    0.82860   0.36890   0.57402   1.000
    H86     H    0.91277   0.57483   0.56123   1.000
    H87     H    0.90944   0.56051   0.44075   1.000
    H88     H    0.77804   0.36782   0.20143   1.000
    H89     H    0.77379   0.36805   0.07981   1.000
    H90     H    0.92483   0.55261   0.09284   1.000
    H91     H    0.92375   0.54392   0.21409   1.000
    C92     C    0.13898   0.95756   0.08279   1.000
    C93     C    0.17397   0.90334   0.12026   1.000
    C94     C    0.16599   0.90268   0.18710   1.000
    C95     C    0.35299   0.06281   0.69143   1.000
    H96     H    0.74905   0.28832   0.32445   1.000
    H97     H    0.67905   0.16739   0.32567   1.000
    H98     H    0.73817   0.71228   0.33008   1.000
    H99     H    0.80955   0.83276   0.33146   1.000
    H100    H    0.89504   0.97130   0.33741   1.000
    H101    H    0.82506   0.08538   0.00207   1.000
    H102    H    0.59425   0.02698   0.33950   1.000
    H103    H    0.68123   0.91849   0.01408   1.000
    H104    H    0.85056   0.93247   0.24517   1.000
    H105    H    0.86091   0.90860   0.12774   1.000
    H106    H    0.87802   0.11995   0.08861   1.000
    H107    H    0.86298   0.14358   0.20560   1.000
    H108    H    0.90999   0.93765   0.55803   1.000
    H109    H    0.90778   0.92350   0.43748   1.000
    H110    H    0.81806   0.12839   0.41757   1.000
    H111    H    0.82333   0.13406   0.53917   1.000
    H112    H    0.94269   0.95778   0.79098   1.000
    H113    H    0.93073   0.94783   0.91132   1.000
    H114    H    0.79166   0.13764   0.90250   1.000
    H115    H    0.80650   0.13813   0.78235   1.000
    H116    H    0.62793   0.85498   0.20952   1.000
    H117    H    0.61448   0.87957   0.09060   1.000
    H118    H    0.62368   0.09062   0.13330   1.000
    H119    H    0.63216   0.06602   0.25159   1.000
    H120    H    0.67243   0.86316   0.54745   1.000
    H121    H    0.67143   0.86887   0.42598   1.000
    H122    H    0.58731   0.07483   0.43877   1.000
    H123    H    0.59063   0.06050   0.55920   1.000
    C124    C    0.87535   0.53904   0.84968   1.000
    C125    C    0.87072   0.52478   0.78312   1.000
    C126    C    0.84571   0.40940   0.47856   1.000
    C127    C    0.84618   0.41239   0.54615   1.000
    C128    C    0.87001   0.47301   0.57786   1.000
    H129    H    0.72202   0.86778   0.79850   1.000
    H130    H    0.72629   0.86804   0.92021   1.000
    H131    H    0.57524   0.05262   0.90715   1.000
    H132    H    0.57630   0.04391   0.78590   1.000
    H133    H    0.75101   0.78836   0.67556   1.000
    H134    H    0.82100   0.66742   0.67433   1.000
    H135    H    0.76189   0.21224   0.66992   1.000
    H136    H    0.69051   0.33274   0.66855   1.000
    C137    C    0.34084   0.43902   0.30170   1.000
    C138    C    0.37337   0.50739   0.02979   1.000
    C139    C    0.35507   0.45972   0.23295   1.000
    C140    C    0.35535   0.52617   0.21114   1.000
    C141    C    0.36081   0.53995   0.14510   1.000
    C142    C    0.36661   0.48812   0.09956   1.000
    C143    C    0.36885   0.42163   0.12193   1.000
    C144    C    0.36250   0.40771   0.18774   1.000
    C145    C    0.38874   0.52158   0.52531   1.000
    C146    C    0.38770   0.52925   0.45832   1.000
    C147    C    0.36193   0.47517   0.41714   1.000
    C148    C    0.33804   0.41497   0.44696   1.000
    C149    C    0.34098   0.41202   0.51469   1.000
    C150    C    0.40920   0.50367   0.81777   1.000
    C151    C    0.40347   0.50901   0.88472   1.000
    C152    C    0.36106   0.45757   0.91722   1.000
    C153    C    0.32606   0.40336   0.87975   1.000
    C154    C    0.33402   0.40270   0.81291   1.000
    C155    C    0.14705   0.56280   0.30856   1.000
    C156    C    0.11807   0.49314   0.03350   1.000
    C157    C    0.13199   0.54183   0.23836   1.000
    C158    C    0.12684   0.59360   0.19196   1.000
    C159    C    0.12149   0.57926   0.12554   1.000
    C160    C    0.12224   0.51255   0.10396   1.000
    C161    C    0.12470   0.46097   0.15032   1.000
    C162    C    0.12933   0.47523   0.21688   1.000
    C163    C    0.15433   0.59061   0.52144   1.000
    C164    C    0.15386   0.58762   0.45385   1.000
    C165    C    0.13004   0.52700   0.42214   1.000
    C166    C    0.10740   0.47269   0.46128   1.000
    C167    C    0.10946   0.48049   0.52825   1.000
    C168    C    0.18979   0.59236   0.82456   1.000
    C169    C    0.19142   0.59212   0.89221   1.000
    C170    C    0.14935   0.53973   0.92401   1.000
    C171    C    0.10790   0.48914   0.88509   1.000
    C172    C    0.10911   0.49384   0.81772   1.000
    C173    C    0.38740   0.67228   0.67588   1.000
    C174    C    0.32264   0.72218   0.67548   1.000
    C175    C    0.36039   0.78689   0.67450   1.000
    C176    C    0.45339   0.78606   0.67412   1.000
    C177    C    0.12615   0.32784   0.67233   1.000
    C178    C    0.19021   0.27761   0.67069   1.000
    C179    C    0.15162   0.21314   0.66961   1.000
    C180    C    0.05866   0.21445   0.67011   1.000
    C181    C    0.15920   0.93901   0.69831   1.000
    C182    C    0.12666   0.00739   0.97022   1.000
    C183    C    0.14496   0.95972   0.76706   1.000
    C184    C    0.14467   0.02616   0.78886   1.000
    C185    C    0.13922   0.03995   0.85490   1.000
    C186    C    0.13343   0.98812   0.90045   1.000
    C187    C    0.13119   0.92163   0.87809   1.000
    C188    C    0.13754   0.90771   0.81228   1.000
    C189    C    0.11129   0.02156   0.47469   1.000
    C190    C    0.11234   0.02923   0.54168   1.000
    C191    C    0.13811   0.97515   0.58280   1.000
    C192    C    0.16199   0.91494   0.55305   1.000
    C193    C    0.15904   0.91199   0.48533   1.000
    C194    C    0.09082   0.00367   0.18223   1.000
    C195    C    0.09657   0.00901   0.11529   1.000
    O196    O    0.80846   0.11661   0.31181   1.000
    C197    C    0.38195   0.99314   0.96650   1.000
    C198    C    0.36803   0.04184   0.76164   1.000
    C199    C    0.37318   0.09360   0.80803   1.000
    C200    C    0.37852   0.07926   0.87440   1.000
    C201    C    0.37777   0.01255   0.89604   1.000
    C202    C    0.37534   0.96098   0.84968   1.000
    C203    C    0.37071   0.97524   0.78312   1.000
    C204    C    0.34572   0.09063   0.47855   1.000
    C205    C    0.34618   0.08764   0.54614   1.000
    C206    C    0.36999   0.02701   0.57780   1.000
    C207    C    0.39263   0.97270   0.53872   1.000
    C208    C    0.39056   0.98050   0.47174   1.000
    C209    C    0.31024   0.09238   0.17543   1.000
    C210    C    0.30860   0.09213   0.10778   1.000
    C211    C    0.35065   0.03973   0.07599   1.000
    C212    C    0.39212   0.98914   0.11491   1.000
    C213    C    0.39092   0.99385   0.18228   1.000
    C214    C    0.11263   0.17227   0.32410   1.000
    C215    C    0.17739   0.22216   0.32450   1.000
    C216    C    0.13965   0.28687   0.32545   1.000
    C217    C    0.04664   0.28606   0.32588   1.000
    C218    C    0.37388   0.82785   0.32767   1.000
    C219    C    0.30982   0.77764   0.32931   1.000
    C220    C    0.34840   0.71315   0.33039   1.000
    C221    C    0.44137   0.71445   0.32980   1.000
    C222    C    0.65921   0.56099   0.69830   1.000
    C223    C    0.62667   0.49262   0.97021   1.000
    C224    C    0.64497   0.54029   0.76705   1.000
    C225    C    0.64469   0.47384   0.78886   1.000
    C226    C    0.63923   0.46006   0.85490   1.000
    C227    C    0.63343   0.51189   0.90044   1.000
    C228    C    0.63119   0.57838   0.87807   1.000
    C229    C    0.63754   0.59229   0.81226   1.000
    C230    C    0.61131   0.47843   0.47469   1.000
    C231    C    0.61234   0.47076   0.54168   1.000
    C232    C    0.63811   0.52484   0.58286   1.000
    C233    C    0.66200   0.58504   0.55304   1.000
    C234    C    0.65907   0.58799   0.48531   1.000
    C235    C    0.59084   0.49633   0.18223   1.000
    C236    C    0.59658   0.49099   0.11528   1.000
    C237    C    0.63899   0.54244   0.08278   1.000
    C238    C    0.67398   0.59664   0.12025   1.000
    C239    C    0.66602   0.59731   0.18709   1.000
    C240    C    0.85300   0.43721   0.69144   1.000
    C241    C    0.88197   0.50687   0.96650   1.000
    C242    C    0.86805   0.45817   0.76164   1.000
    C243    C    0.87321   0.40641   0.80804   1.000
    C244    C    0.87856   0.42075   0.87446   1.000
    C245    C    0.87780   0.48746   0.89604   1.000
    C246    C    0.89265   0.52731   0.53872   1.000
    C247    C    0.89058   0.51952   0.47175   1.000
    C248    C    0.81026   0.40765   0.17544   1.000
    C249    C    0.80863   0.40789   0.10779   1.000
    C250    C    0.85069   0.46027   0.07599   1.000
    C251    C    0.89214   0.51087   0.11490   1.000
    C252    C    0.89093   0.50617   0.18228   1.000
    C253    C    0.61265   0.32773   0.32412   1.000
    C254    C    0.67741   0.27782   0.32452   1.000
    C255    C    0.63966   0.21312   0.32545   1.000
    C256    C    0.54665   0.21395   0.32588   1.000
    C257    C    0.87389   0.67217   0.32767   1.000
    C258    C    0.80983   0.72239   0.32931   1.000
    C259    C    0.84842   0.78687   0.33039   1.000
    C260    C    0.94138   0.78556   0.32989   1.000
    C261    C    0.84085   0.06100   0.30169   1.000
    C262    C    0.87338   0.99262   0.02978   1.000
    C263    C    0.85508   0.04029   0.23294   1.000
    C264    C    0.85537   0.97385   0.21114   1.000
    C265    C    0.86083   0.96006   0.14510   1.000
    C266    C    0.86662   0.01189   0.09955   1.000
    C267    C    0.86885   0.07838   0.12191   1.000
    C268    C    0.86250   0.09230   0.18772   1.000
    C269    C    0.88875   0.97845   0.52531   1.000
    C270    C    0.88770   0.97078   0.45832   1.000
    C271    C    0.86193   0.02486   0.41714   1.000
    C272    C    0.83806   0.08507   0.44695   1.000
    C273    C    0.84101   0.08802   0.51460   1.000
    C274    C    0.90923   0.99634   0.81777   1.000
    C275    C    0.90348   0.99100   0.88471   1.000
    C276    C    0.86106   0.04244   0.91721   1.000
    C277    C    0.82607   0.09666   0.87974   1.000
    C278    C    0.83405   0.09733   0.81290   1.000
    C279    C    0.64706   0.93719   0.30857   1.000
    C280    C    0.61810   0.00687   0.03350   1.000
    C281    C    0.63201   0.95817   0.23836   1.000
    C282    C    0.62687   0.90641   0.19197   1.000
    C283    C    0.62152   0.92075   0.12550   1.000
    C284    C    0.62227   0.98745   0.10396   1.000
    C285    C    0.62471   0.03903   0.15032   1.000
    C286    C    0.62933   0.02477   0.21688   1.000
    C287    C    0.65432   0.90937   0.52145   1.000
    C288    C    0.65387   0.91237   0.45386   1.000
    C289    C    0.63005   0.97299   0.42215   1.000
    C290    C    0.60742   0.02730   0.46128   1.000
    C291    C    0.60948   0.01951   0.52826   1.000
    C292    C    0.68981   0.90762   0.82457   1.000
    C293    C    0.69145   0.90787   0.89222   1.000
    C294    C    0.64939   0.96028   0.92401   1.000
    C295    C    0.60792   0.01087   0.88509   1.000
    C296    C    0.60912   0.00616   0.81770   1.000
    C297    C    0.88741   0.82774   0.67589   1.000
    C298    C    0.82265   0.77785   0.67549   1.000
    C299    C    0.86040   0.71314   0.67455   1.000
    C300    C    0.95340   0.71395   0.67413   1.000
    C301    C    0.62616   0.17216   0.67233   1.000
    C302    C    0.69023   0.22237   0.67069   1.000
    C303    C    0.65164   0.28686   0.66960   1.000
    C304    C    0.55867   0.28555   0.67012   1.000
    S305    S    0.01837   0.29550   0.67200   1.000
    S306    S    0.49470   0.70522   0.67482   1.000
    S307    S    0.48166   0.79549   0.32800   1.000
    S308    S    0.00533   0.20523   0.32517   1.000
    S309    S    0.98168   0.70451   0.32800   1.000
    S310    S    0.50534   0.29479   0.32518   1.000
    S311    S    0.51838   0.20452   0.67200   1.000
    S312    S    0.99471   0.79478   0.67483   1.000
    N313    N    0.36316   0.48508   0.35002   1.000
    N314    N    0.36552   0.46394   0.55414   1.000
    N315    N    0.35299   0.45680   0.98454   1.000
    N316    N    0.37502   0.45209   0.78174   1.000
    N317    N    0.12623   0.51681   0.35487   1.000
    N318    N    0.13298   0.53840   0.55894   1.000
    N319    N    0.15035   0.54110   0.99207   1.000
    N320    N    0.14911   0.54409   0.78711   1.000
    N321    N    0.13688   0.98507   0.64998   1.000
    N322    N    0.13449   0.96391   0.44580   1.000
    N323    N    0.14706   0.95679   0.01547   1.000
    N324    N    0.12499   0.95207   0.21827   1.000
    N325    N    0.37379   0.01682   0.64513   1.000
    N326    N    0.36706   0.03842   0.44105   1.000
    N327    N    0.34965   0.04109   0.00792   1.000
    N328    N    0.35092   0.04411   0.21289   1.000
    N329    N    0.63688   0.51492   0.64998   1.000
    N330    N    0.63452   0.53606   0.44586   1.000
    N331    N    0.64706   0.54321   0.01546   1.000
    N332    N    0.62502   0.54792   0.21826   1.000
    N333    N    0.87381   0.48320   0.64513   1.000
    N334    N    0.86707   0.46161   0.44106   1.000
    N335    N    0.84969   0.45891   0.00793   1.000
    N336    N    0.85093   0.45592   0.21289   1.000
    N337    N    0.86316   0.01494   0.35002   1.000
    N338    N    0.86555   0.03609   0.55410   1.000
    N339    N    0.85298   0.04322   0.98453   1.000
    N340    N    0.87505   0.04793   0.78173   1.000
    N341    N    0.62625   0.98319   0.35487   1.000
    N342    N    0.63298   0.96159   0.55895   1.000
    N343    N    0.65040   0.95892   0.99208   1.000
    N344    N    0.64912   0.95590   0.78711   1.000
    O345    O    0.30844   0.38342   0.31183   1.000
    O346    O    0.39463   0.56434   0.01366   1.000
    O347    O    0.17901   0.61861   0.32202   1.000
    O348    O    0.08963   0.43820   0.01399   1.000
    O349    O    0.19158   0.88340   0.68819   1.000
    O350    O    0.10540   0.06435   0.98634   1.000
    O351    O    0.32104   0.11863   0.67798   1.000
    O352    O    0.41040   0.93820   0.98601   1.000
    O353    O    0.69160   0.61658   0.68817   1.000
    O354    O    0.60542   0.43567   0.98634   1.000
    O355    O    0.82103   0.38140   0.67790   1.000
    O356    O    0.91042   0.56181   0.98601   1.000
    O357    O    0.89465   0.93566   0.01366   1.000
    O358    O    0.67901   0.88137   0.32202   1.000
    O359    O    0.58964   0.06181   0.01399   1.000
loop_
    _geom_bond_atom_site_label_1
    _geom_bond_atom_site_label_2
    _geom_bond_distance
    _geom_bond_site_symmetry_2
    _ccdc_geom_bond_type
    H101   N339      1.01822  1_554   S
    H1     N315      1.01834  1_554   S
    N327   C211      1.39633      .   S
    N327   C197      1.39164  1_544   S
    N327   H35       1.01853  1_554   S
    N335   C250      1.39614      .   S
    N335   C241      1.39182  1_554   S
    N335   H67       1.01843  1_554   S
    O346   C138      1.23412      .   S
    O357   C262      1.23408      .   S
    O348   C156      1.23345      .   S
    O359   C280      1.23341      .   S
    H3     N319      1.01843  1_554   S
    H103   N343      1.01853  1_554   S
    N331   C237      1.39617      .   S
    N331   C223      1.39119  1_554   S
    N331   H65       1.01836  1_554   S
    N323   C92       1.39618      .   S
    N323   C182      1.39124  1_564   S
    N323   H33       1.01822  1_554   S
    C262   C266      1.49379  1_565   S
    C262   N339      1.39124  1_564   S
    C138   C142      1.49375      .   S
    C138   N315      1.39119  1_554   S
    C156   C160      1.49411      .   S
    C156   N319      1.39182  1_554   S
    C280   C284      1.49407  1_545   S
    C280   N343      1.39164  1_544   S
    C250   C249      1.40707      .   S
    C250   C251      1.40314      .   S
    C211   C210      1.40704      .   S
    C211   C212      1.40319  1_545   S
    H57    C210      1.09052      .   S
    H89    C249      1.09048      .   S
    C237   C236      1.40283      .   S
    C237   C238      1.40644      .   S
    C92    C195      1.40287  1_565   S
    C92    C93       1.40643      .   S
    H77    C236      1.08450      .   S
    H106   C267      1.09128      .   S
    H6     C143      1.09133      .   S
    H45    C195      1.08381      .   S
    H117   C283      1.09121      .   S
    H17    C159      1.09132      .   S
    H90    C251      1.08322      .   S
    H58    C212      1.08326      .   S
    H78    C238      1.09076      .   S
    H46    C93       1.09069      .   S
    C266   C267      1.40596      .   S
    C266   C265      1.40272  1_545   S
    C142   C143      1.40599      .   S
    C142   C141      1.40273      .   S
    C284   C283      1.40539      .   S
    C284   C285      1.40178  1_565   S
    C160   C159      1.40566      .   S
    C160   C161      1.40178      .   S
    C210   C209      1.38688      .   S
    C249   C248      1.38689      .   S
    C251   C252      1.38764      .   S
    C212   C213      1.38744      .   S
    C236   C235      1.38742      .   S
    C195   C194      1.38724      .   S
    C238   C239      1.38608      .   S
    C93    C94       1.38611      .   S
    C267   C268      1.38940      .   S
    C143   C144      1.38937      .   S
    C283   C282      1.39043      .   S
    C159   C158      1.38944      .   S
    H5     C141      1.08895      .   S
    H105   C265      1.08892      .   S
    H18    C161      1.08886      .   S
    H118   C285      1.08884      .   S
    C141   C140      1.39164      .   S
    C265   C264      1.39167      .   S
    C161   C162      1.39215      .   S
    C285   C286      1.39214      .   S
    C209   H56       1.09055      .   S
    C209   N328      1.34919      .   S
    C248   H88       1.09050      .   S
    C248   N336      1.34914      .   S
    C194   H44       1.08984      .   S
    C194   N324      1.34680  1_545   S
    C235   H76       1.08981      .   S
    C235   N332      1.34673      .   S
    C252   N336      1.34828      .   S
    C252   H91       1.08962      .   S
    C213   N328      1.34835  1_565   S
    C213   H59       1.08969      .   S
    C239   H79       1.09013      .   S
    C239   N332      1.34854      .   S
    C94    H47       1.09013      .   S
    C94    N324      1.34858      .   S
    C268   H107      1.08898      .   S
    C268   C263      1.40374      .   S
    C144   H7        1.08895      .   S
    C144   C139      1.40369      .   S
    C158   H16       1.08903      .   S
    C158   C157      1.40455      .   S
    C282   H116      1.08911      .   S
    C282   C281      1.40443      .   S
    C264   C263      1.40197  1_565   S
    C264   H104      1.08862      .   S
    C140   C139      1.40204      .   S
    C140   H4        1.08869      .   S
    C162   C157      1.40238      .   S
    C162   H19       1.08861      .   S
    C286   C281      1.40232  1_545   S
    C286   H119      1.08863      .   S
    C263   C261      1.50113      .   S
    C139   C137      1.50108      .   S
    C157   C155      1.50102      .   S
    C281   C279      1.50120      .   S
    C261   O196      1.23617      .   S
    C261   N337      1.37577      .   S
    C137   O345      1.23619      .   S
    C137   N313      1.37574      .   S
    C155   O347      1.23659      .   S
    C155   N317      1.37498      .   S
    C279   O358      1.23656      .   S
    C279   N341      1.37484      .   S
    C214   C215      1.38875      .   S
    C214   S308      1.73354      .   S
    C253   C254      1.38875      .   S
    C253   S310      1.73352      .   S
    H60    C215      1.08981      .   S
    H96    C254      1.08981      .   S
    C215   C216      1.41182      .   S
    C254   C255      1.41179      .   S
    S308   C217      1.72944      .   S
    S310   C256      1.72946      .   S
    C255   H97       1.08680      .   S
    C255   C256      1.38897      .   S
    C216   H61       1.08682      .   S
    C216   C217      1.38897      .   S
    C218   S307      1.73349      .   S
    C218   C219      1.38871      .   S
    C257   S309      1.73353      .   S
    C257   C258      1.38872      .   S
    S309   C260      1.72980      .   S
    S307   C221      1.72968      .   S
    C219   H62       1.08985      .   S
    C219   C220      1.41153      .   S
    C258   H98       1.08987      .   S
    C258   C259      1.41155      .   S
    C221   C220      1.38880      .   S
    C260   C259      1.38863      .   S
    C259   H99       1.08663      .   S
    C220   H63       1.08662      .   S
    H100   N337      1.03594  1_565   S
    H0     N313      1.03588      .   S
    H102   N341      1.03501  1_545   S
    H2     N317      1.03501      .   S
    N313   C147      1.39332      .   S
    N337   C271      1.39335      .   S
    N317   C165      1.39256      .   S
    N341   C289      1.39276      .   S
    C271   C272      1.40842      .   S
    C271   C270      1.40779  1_545   S
    C147   C148      1.40843      .   S
    C147   C146      1.40789      .   S
    H110   C272      1.08431      .   S
    H10    C148      1.08426      .   S
    C165   C164      1.40855      .   S
    C165   C166      1.40708      .   S
    C289   C288      1.40852      .   S
    C289   C290      1.40698  1_565   S
    H121   C288      1.08414      .   S
    H21    C164      1.08401      .   S
    H9     C146      1.08945      .   S
    H109   C270      1.08882      .   S
    H22    C166      1.08865      .   S
    H122   C290      1.08864      .   S
    H55    C208      1.08756      .   S
    H87    C247      1.08768      .   S
    N326   C208      1.35166  1_545   S
    N326   C204      1.34950      .   S
    N334   C247      1.35168      .   S
    N334   C126      1.34947      .   S
    H72    C230      1.08843      .   S
    H40    C189      1.08838      .   S
    N322   C189      1.35316  1_565   S
    N322   C193      1.35095      .   S
    N330   C230      1.35257      .   S
    N330   C234      1.35005      .   S
    C272   C273      1.38712      .   S
    C148   C149      1.38876      .   S
    H84    C126      1.09132      .   S
    H52    C204      1.09072      .   S
    C164   C163      1.38807      .   S
    C288   C287      1.38807      .   S
    C270   C269      1.38242      .   S
    C146   C145      1.38240      .   S
    H75    C234      1.09072      .   S
    H43    C193      1.09075      .   S
    C166   C167      1.38138      .   S
    C290   C291      1.38158      .   S
    C208   C207      1.38158      .   S
    C247   C246      1.38138      .   S
    C230   C231      1.38240      .   S
    C189   C190      1.38241      .   S
    C204   C205      1.38807      .   S
    C126   C127      1.38807      .   S
    C234   C233      1.38876      .   S
    C193   C192      1.38856      .   S
    C273   H111      1.09144      .   S
    C273   N338      1.35060      .   S
    C149   H11       1.09070      .   S
    C149   N314      1.35006      .   S
    C163   H20       1.09083      .   S
    C163   N318      1.34947      .   S
    C287   H120      1.09074      .   S
    C287   N342      1.34948      .   S
    C145   N314      1.35257      .   S
    C145   H8        1.08843      .   S
    C269   N338      1.35222  1_565   S
    C269   H108      1.08839      .   S
    C167   N318      1.35168      .   S
    C167   H23       1.08768      .   S
    C291   N342      1.35166  1_545   S
    C291   H123      1.08694      .   S
    C207   H54       1.08864      .   S
    C207   C206      1.40636  1_565   S
    C246   H86       1.08865      .   S
    C246   C128      1.40708      .   S
    C231   H73       1.08862      .   S
    C231   C232      1.40787      .   S
    C190   H41       1.08882      .   S
    C190   C191      1.40707  1_545   S
    C205   H53       1.08415      .   S
    C205   C206      1.40807      .   S
    C127   H85       1.08400      .   S
    C127   C128      1.40855      .   S
    C233   H74       1.08425      .   S
    C233   C232      1.40844      .   S
    C192   H42       1.08431      .   S
    C192   C191      1.40786      .   S
    C206   N325      1.39378      .   S
    C128   N333      1.39256      .   S
    C191   N321      1.39457      .   S
    C232   N329      1.39332      .   S
    N333   H66       1.03502      .   S
    N333   C240      1.37497      .   S
    N325   H34       1.03229  1_545   S
    N325   C95       1.37484      .   S
    N321   H32       1.03594  1_565   S
    N321   C181      1.37578      .   S
    N329   H64       1.03588      .   S
    N329   C222      1.37574      .   S
    H31    C179      1.08667      .   S
    H136   C303      1.08661      .   S
    C303   C304      1.38868      .   S
    C303   C302      1.41155      .   S
    C179   C180      1.38865      .   S
    C179   C178      1.41155      .   S
    H30    C178      1.08987      .   S
    H135   C302      1.08985      .   S
    C180   S305      1.72980      .   S
    C304   S311      1.72976      .   S
    C178   C177      1.38872      .   S
    C302   C301      1.38871      .   S
    S311   C301      1.73349      .   S
    S305   C177      1.73353      .   S
    C176   C175      1.38889      .   S
    C176   S306      1.72946      .   S
    C300   C299      1.38896      .   S
    C300   S312      1.72944      .   S
    H134   C299      1.08682      .   S
    H29    C175      1.08687      .   S
    C175   C174      1.41183      .   S
    C299   C298      1.41181      .   S
    S306   C173      1.73351      .   S
    S312   C297      1.73351      .   S
    C174   H28       1.08983      .   S
    C174   C173      1.38875      .   S
    C298   H133      1.08981      .   S
    C298   C297      1.38877      .   S
    O355   C240      1.23692      .   S
    O351   C95       1.23656      .   S
    O353   C222      1.23618      .   S
    O349   C181      1.23618      .   S
    C95    C198      1.50120      .   S
    C240   C242      1.50102      .   S
    C222   C224      1.50109      .   S
    C181   C183      1.50114      .   S
    H51    C203      1.08864      .   S
    H83    C125      1.08861      .   S
    H36    C184      1.08862      .   S
    H68    C225      1.08869      .   S
    C198   C203      1.40232  1_545   S
    C198   C199      1.40443      .   S
    C242   C125      1.40238      .   S
    C242   C243      1.40455      .   S
    C224   C225      1.40202      .   S
    C224   C229      1.40370      .   S
    C183   C184      1.40195  1_565   S
    C183   C188      1.40375      .   S
    N340   C278      1.34860      .   S
    N340   C274      1.34680  1_545   S
    N316   C154      1.34854      .   S
    N316   C150      1.34673      .   S
    H115   C278      1.09011      .   S
    H15    C154      1.09014      .   S
    C125   C124      1.39215      .   S
    C203   C202      1.39214      .   S
    H132   C296      1.08946      .   S
    H27    C172      1.08962      .   S
    N344   C296      1.34814  1_565   S
    N344   C292      1.34919      .   S
    N320   C172      1.34828      .   S
    N320   C168      1.34916      .   S
    C184   C185      1.39167      .   S
    C225   C226      1.39164      .   S
    H80    C243      1.08971      .   S
    H48    C199      1.08909      .   S
    H12    C150      1.08981      .   S
    H112   C274      1.08984      .   S
    H71    C229      1.08893      .   S
    H39    C188      1.08898      .   S
    H129   C292      1.09141      .   S
    H24    C168      1.09049      .   S
    C199   C200      1.38842      .   S
    C243   C244      1.38944      .   S
    C229   C228      1.38938      .   S
    C188   C187      1.38940      .   S
    C278   C277      1.38611      .   S
    C154   C153      1.38608      .   S
    C296   C295      1.38785      .   S
    C172   C171      1.38744      .   S
    C274   C275      1.38724      .   S
    C150   C151      1.38742      .   S
    C168   C169      1.38689      .   S
    C292   C293      1.38688      .   S
    C124   H82       1.08884      .   S
    C124   C245      1.40178      .   S
    C202   H50       1.08884      .   S
    C202   C201      1.40178  1_565   S
    C185   H37       1.08894      .   S
    C185   C186      1.40272  1_545   S
    C226   H69       1.08895      .   S
    C226   C227      1.40273      .   S
    C200   C201      1.40603      .   S
    C200   H49       1.09213      .   S
    C244   C245      1.40566      .   S
    C244   H81       1.09132      .   S
    C228   C227      1.40597      .   S
    C228   H70       1.09134      .   S
    C187   C186      1.40596      .   S
    C187   H38       1.09127      .   S
    C277   H114      1.09068      .   S
    C277   C276      1.40642      .   S
    C153   H14       1.09075      .   S
    C153   C152      1.40644      .   S
    C275   H113      1.08381      .   S
    C275   C276      1.40288  1_565   S
    C151   H13       1.08383      .   S
    C151   C152      1.40283      .   S
    C295   H131      1.08326      .   S
    C295   C294      1.40319  1_545   S
    C171   H26       1.08332      .   S
    C171   C170      1.40325      .   S
    C169   H25       1.09048      .   S
    C169   C170      1.40707      .   S
    C293   H130      1.09054      .   S
    C293   C294      1.40703      .   S
    C201   C197      1.49407  1_545   S
    C245   C241      1.49411      .   S
    C227   C223      1.49376      .   S
    C186   C182      1.49379  1_565   S
    C276   N339      1.39618      .   S
    C152   N315      1.39617      .   S
    C170   N319      1.39614      .   S
    C294   N343      1.39633      .   S
    C241   O356      1.23343      .   S
    C197   O352      1.23341      .   S
    C223   O354      1.23412      .   S
    C182   O350      1.23409      .   S
