# CIF file generated by openbabel 2.4.90, see http://openbabel.sf.net
data_I
_chemical_name_common ''
_cell_length_a 14.926
_cell_length_b 19.994
_cell_length_c 20.525
_cell_angle_alpha 89.998
_cell_angle_beta 94.364
_cell_angle_gamma 89.993
_space_group_name_H-M_alt 'P 1'
_space_group_name_Hall 'P 1'
loop_
    _symmetry_equiv_pos_as_xyz
    x,y,z
loop_
    _atom_site_label
    _atom_site_type_symbol
    _atom_site_fract_x
    _atom_site_fract_y
    _atom_site_fract_z
    _atom_site_occupancy
    Lv0     Lv   0.36458   0.03279   0.82760   1.000
    Lv1     Lv   0.36309   0.46733   0.16702   1.000
    Lv2     Lv   0.86460   0.46722   0.82761   1.000
    Lv3     Lv   0.13544   0.53278   0.17238   1.000
    Lv4     Lv   0.37007   0.74528   0.67495   1.000
    Lv5     Lv   0.63546   0.96721   0.17238   1.000
    Lv6     Lv   0.13694   0.96732   0.83299   1.000
    Lv7     Lv   0.86310   0.03269   0.16701   1.000
    Lv8     Lv   0.14248   0.25479   0.67045   1.000
    Lv9     Lv   0.85756   0.74522   0.32954   1.000
    Lv10    Lv   0.63695   0.53267   0.83298   1.000
    Lv11    Lv   0.87008   0.75475   0.67497   1.000
    Lv12    Lv   0.64250   0.24520   0.67046   1.000
    Lv13    Lv   0.35755   0.75480   0.32953   1.000
    Lv14    Lv   0.12996   0.24526   0.32503   1.000
    Lv15    Lv   0.62997   0.25473   0.32504   1.000
