# CIF file generated by openbabel 2.4.90, see http://openbabel.sf.net
data_I
_chemical_name_common ''
_cell_length_a 14.926
_cell_length_b 19.994
_cell_length_c 20.525
_cell_angle_alpha 89.998
_cell_angle_beta 94.364
_cell_angle_gamma 89.993
_space_group_name_H-M_alt 'P 1'
_space_group_name_Hall 'P 1'
loop_
    _symmetry_equiv_pos_as_xyz
    x,y,z
loop_
    _atom_site_label
    _atom_site_type_symbol
    _atom_site_fract_x
    _atom_site_fract_y
    _atom_site_fract_z
    _atom_site_occupancy
    Cd0     Cd   0.13735   0.54701   0.67194   1.000
    Cd1     Cd   0.12350   0.95357   0.33259   1.000
    Cd2     Cd   0.36269   0.04703   0.32805   1.000
    Cd3     Cd   0.62352   0.54642   0.33258   1.000
    Cd4     Cd   0.86270   0.45300   0.32806   1.000
    Cd5     Cd   0.87655   0.04644   0.66741   1.000
    Cd6     Cd   0.63736   0.95298   0.67195   1.000
    Cd7     Cd   0.37652   0.45358   0.66742   1.000
    C8      C    0.37473   0.59892   0.67603   1.000
    C9      C    0.99673   0.15647   0.66881   1.000
    C10     C    0.13987   0.40111   0.67371   1.000
    C11     C    0.51483   0.84424   0.67295   1.000
    O12     O    0.93011   0.56203   0.32402   1.000
    O13     O    0.08777   0.83348   0.33306   1.000
    O14     O    0.96933   0.90252   0.33045   1.000
    O15     O    0.70407   0.42590   0.32484   1.000
    O16     O    0.55470   0.43759   0.32350   1.000
    O17     O    0.40088   0.16591   0.32752   1.000
    O18     O    0.51926   0.09691   0.32752   1.000
    C19     C    0.12530   0.09890   0.32397   1.000
    C20     C    0.50333   0.65647   0.33119   1.000
    C21     C    0.36015   0.90112   0.32629   1.000
    C22     C    0.98523   0.34425   0.32705   1.000
    C23     C    0.62532   0.40109   0.32397   1.000
    C24     C    0.00331   0.84353   0.33119   1.000
    C25     C    0.86017   0.59890   0.32629   1.000
    C26     C    0.48521   0.15577   0.32705   1.000
    C27     C    0.87474   0.90110   0.67603   1.000
    C28     C    0.49671   0.34354   0.66881   1.000
    C29     C    0.63989   0.09889   0.67371   1.000
    C30     C    0.01481   0.65576   0.67295   1.000
    O31     O    0.21862   0.42531   0.67215   1.000
    O32     O    0.06994   0.43798   0.67598   1.000
    O33     O    0.91228   0.16653   0.66694   1.000
    O34     O    0.03071   0.09748   0.66955   1.000
    O35     O    0.29597   0.57411   0.67516   1.000
    O36     O    0.44534   0.56241   0.67647   1.000
    O37     O    0.59916   0.83410   0.67248   1.000
    O38     O    0.48078   0.90310   0.67248   1.000
    O39     O    0.28140   0.92533   0.32780   1.000
    O40     O    0.43009   0.93798   0.32402   1.000
    O41     O    0.58779   0.66651   0.33306   1.000
    O42     O    0.46932   0.59748   0.33045   1.000
    O43     O    0.20405   0.07408   0.32483   1.000
    O44     O    0.05468   0.06241   0.32354   1.000
    O45     O    0.90090   0.33413   0.32752   1.000
    O46     O    0.01925   0.40311   0.32752   1.000
    O47     O    0.78142   0.57470   0.32785   1.000
    O48     O    0.71864   0.07468   0.67210   1.000
    O49     O    0.56996   0.06202   0.67598   1.000
    O50     O    0.41226   0.33349   0.66694   1.000
    O51     O    0.53072   0.40253   0.66955   1.000
    O52     O    0.79599   0.92593   0.67517   1.000
    O53     O    0.94536   0.93759   0.67646   1.000
    O54     O    0.09914   0.66588   0.67248   1.000
    O55     O    0.98080   0.59690   0.67248   1.000
loop_
    _geom_bond_atom_site_label_1
    _geom_bond_atom_site_label_2
    _geom_bond_distance
    _geom_bond_site_symmetry_2
    _ccdc_geom_bond_type
    O16    C23       1.28138      .   S
    O16    Cd3       2.40748      .   S
    O44    C19       1.28140      .   S
    O44    Cd1       2.40747  1_545   S
    C23    O15       1.27480      .   S
    C19    O43       1.27481      .   S
    O12    C25       1.28164      .   S
    O12    Cd4       2.40514      .   S
    O40    C21       1.28165      .   S
    O40    Cd2       2.40508  1_565   S
    O43    Cd2       2.42469      .   S
    O15    Cd4       2.42488      .   S
    C25    O47       1.27384      .   S
    C21    O39       1.27371      .   S
    C26    O18       1.28163      .   S
    C26    O17       1.27570      .   S
    C22    O46       1.28143  1_655   S
    C22    O45       1.27572      .   S
    O18    Cd2       2.54176      .   S
    O46    Cd4       2.54137  1_455   S
    O17    Cd2       2.44457      .   S
    O45    Cd4       2.44431      .   S
    O39    Cd1       2.43277      .   S
    O47    Cd3       2.43281      .   S
    O42    C20       1.28367      .   S
    O42    Cd3       2.51502      .   S
    O14    C24       1.28347  1_655   S
    O14    Cd1       2.51469  1_655   S
    C24    O13       1.27415      .   S
    C20    O41       1.27415      .   S
    Cd3    O41       2.45977      .   S
    Cd1    O13       2.45987      .   S
    O50    Cd7       2.45977      .   S
    O50    C28       1.27415      .   S
    O33    Cd5       2.45987      .   S
    O33    C9        1.27415      .   S
    Cd5    O34       2.51469  1_655   S
    Cd5    O48       2.43255      .   S
    Cd5    O53       2.40747  1_545   S
    Cd7    O51       2.51502      .   S
    Cd7    O31       2.43283      .   S
    Cd7    O36       2.40745      .   S
    C28    O51       1.28365      .   S
    C9     O34       1.28347  1_655   S
    Cd0    O55       2.54136  1_455   S
    Cd0    O54       2.44431      .   S
    Cd0    O35       2.42488      .   S
    Cd0    O32       2.40514      .   S
    Cd6    O37       2.44457      .   S
    Cd6    O38       2.54177      .   S
    Cd6    O52       2.42468      .   S
    Cd6    O49       2.40508  1_565   S
    O48    C29       1.27391      .   S
    O31    C10       1.27384      .   S
    O37    C11       1.27570      .   S
    O38    C11       1.28164      .   S
    O55    C30       1.28143  1_655   S
    O54    C30       1.27570      .   S
    C29    O49       1.28165      .   S
    C10    O32       1.28163      .   S
    O35    C8        1.27482      .   S
    O52    C27       1.27482      .   S
    C27    O53       1.28140      .   S
    C8     O36       1.28140      .   S
