# CIF file generated by openbabel 2.4.90, see http://openbabel.sf.net
data_I
_chemical_name_common ''
_cell_length_a 14.926
_cell_length_b 19.994
_cell_length_c 20.525
_cell_angle_alpha 89.998
_cell_angle_beta 94.364
_cell_angle_gamma 89.993
_space_group_name_H-M_alt 'P 1'
_space_group_name_Hall 'P 1'
loop_
    _symmetry_equiv_pos_as_xyz
    x,y,z
loop_
    _atom_site_label
    _atom_site_type_symbol
    _atom_site_fract_x
    _atom_site_fract_y
    _atom_site_fract_z
    _atom_site_occupancy
    N0      N    0.36458   0.03279   0.82760   1.000
    N1      N    0.36309   0.46733   0.16702   1.000
    N2      N    0.86460   0.46722   0.82761   1.000
    N3      N    0.13544   0.53278   0.17238   1.000
    N4      N    0.37007   0.74528   0.67495   1.000
    N5      N    0.63546   0.96721   0.17238   1.000
    N6      N    0.13694   0.96732   0.83299   1.000
    N7      N    0.86310   0.03269   0.16701   1.000
    N8      N    0.14248   0.25479   0.67045   1.000
    N9      N    0.85756   0.74522   0.32954   1.000
    N10     N    0.63695   0.53267   0.83298   1.000
    N11     N    0.87008   0.75475   0.67497   1.000
    N12     N    0.64250   0.24520   0.67046   1.000
    N13     N    0.35755   0.75480   0.32953   1.000
    N14     N    0.12996   0.24526   0.32503   1.000
    N15     N    0.62997   0.25473   0.32504   1.000
    Zr16    Zr   0.25663   0.49989   0.67229   1.000
    O17     O    0.42086   0.38989   0.67113   1.000
    O18     O    0.31610   0.59517   0.67387   1.000
    O19     O    0.09186   0.60985   0.67327   1.000
    O20     O    0.31303   0.47999   0.80904   1.000
    O21     O    0.31184   0.48147   0.53059   1.000
    O22     O    0.19719   0.40476   0.67201   1.000
    O23     O    0.19596   0.51882   0.53310   1.000
    O24     O    0.19798   0.51953   0.81162   1.000
    Zr25    Zr   0.75664   0.00011   0.67229   1.000
    O26     O    0.59187   0.89016   0.67327   1.000
    O27     O    0.69720   0.09524   0.67201   1.000
    O28     O    0.81611   0.90485   0.67388   1.000
    O29     O    0.92087   0.11012   0.67112   1.000
    O30     O    0.69800   0.98047   0.81162   1.000
    O31     O    0.69598   0.98118   0.53310   1.000
    O32     O    0.81305   0.02002   0.80904   1.000
    O33     O    0.81186   0.01854   0.53058   1.000
    Zr34    Zr   0.74342   0.50011   0.32771   1.000
    O35     O    0.80408   0.48119   0.46690   1.000
    O36     O    0.80206   0.48048   0.18838   1.000
    O37     O    0.68395   0.40484   0.32612   1.000
    O38     O    0.68701   0.52002   0.19095   1.000
    O39     O    0.68820   0.51853   0.46940   1.000
    O40     O    0.80286   0.59524   0.32798   1.000
    O41     O    0.57918   0.61012   0.32886   1.000
    O42     O    0.90818   0.39016   0.32673   1.000
    Zr43    Zr   0.24340   0.99990   0.32771   1.000
    O44     O    0.40818   0.10985   0.32673   1.000
    O45     O    0.18700   0.97998   0.19096   1.000
    O46     O    0.18818   0.98146   0.46940   1.000
    O47     O    0.18393   0.09516   0.32612   1.000
    O48     O    0.30284   0.90477   0.32798   1.000
    O49     O    0.07918   0.88989   0.32887   1.000
    O50     O    0.30407   0.01883   0.46689   1.000
    O51     O    0.30205   0.01954   0.18837   1.000
loop_
    _geom_bond_atom_site_label_1
    _geom_bond_atom_site_label_2
    _geom_bond_distance
    _geom_bond_site_symmetry_2
    _ccdc_geom_bond_type
    Zr16   O17       3.29473      .   S
    N12    O17       4.39506      .   S
    Zr16   O18       2.10082      .   S
    N4     O18       3.10728      .   S
    Zr16   O19       3.29965      .   S
    N11    O19       4.40084  1_655   S
    Zr16   O20       2.89584      .   S
    N1     O20       7.33286  1_554   S
    Zr16   O21       3.10450      .   S
    N1     O21       7.56450      .   S
    Zr16   O22       2.09873      .   S
    N8     O22       3.10739      .   S
    Zr16   O23       2.95481      .   S
    N3     O23       7.39538      .   S
    Zr16   O24       3.07890      .   S
    N3     O24       7.53800  1_554   S
    Zr25   O26       3.30013  1_545   S
    N4     O26       4.40139      .   S
    Zr25   O27       2.09843      .   S
    N12    O27       3.10706      .   S
    Zr25   O28       2.10048  1_545   S
    N11    O28       3.10692      .   S
    Zr25   O29       3.29498      .   S
    N8     O29       4.39524  1_455   S
    Zr25   O30       3.07897  1_545   S
    N5     O30       7.53796  1_554   S
    Zr25   O31       2.95481  1_545   S
    N5     O31       7.39545      .   S
    Zr25   O32       2.89587      .   S
    N7     O32       7.33284  1_554   S
    Zr25   O33       3.10466      .   S
    N7     O33       7.56445      .   S
    Zr34   O35       2.95480      .   S
    N2     O35       7.39530      .   S
    Zr34   O36       3.07891      .   S
    N2     O36       7.53808  1_556   S
    Zr34   O37       2.10081      .   S
    N15    O37       3.10727      .   S
    Zr34   O38       2.89584      .   S
    N10    O38       7.33291  1_556   S
    Zr34   O39       3.10450      .   S
    N10    O39       7.56445      .   S
    Zr34   O40       2.09873      .   S
    N9     O40       3.10739      .   S
    Zr34   O41       3.29471      .   S
    N13    O41       4.39506      .   S
    Zr34   O42       3.29965      .   S
    N14    O42       4.40084  1_455   S
    Zr43   O44       3.30012  1_565   S
    N15    O44       4.40140      .   S
    Zr43   O45       2.89583      .   S
    N6     O45       7.33286  1_556   S
    Zr43   O46       3.10446      .   S
    N6     O46       7.56468      .   S
    Zr43   O47       2.10048  1_565   S
    N14    O47       3.10692      .   S
    Zr43   O48       2.09843      .   S
    N13    O48       3.10705      .   S
    Zr43   O49       3.29498      .   S
    N9     O49       4.39524  1_655   S
    Zr43   O50       2.95478  1_565   S
    N0     O50       7.39519      .   S
    Zr43   O51       3.07901  1_565   S
    N0     O51       7.53822  1_556   S
