# CIF file generated by openbabel 2.4.90, see http://openbabel.sf.net
data_I
_chemical_name_common ''
_cell_length_a 14.926
_cell_length_b 19.994
_cell_length_c 20.525
_cell_angle_alpha 89.998
_cell_angle_beta 94.364
_cell_angle_gamma 89.993
_space_group_name_H-M_alt 'P 1'
_space_group_name_Hall 'P 1'
loop_
    _symmetry_equiv_pos_as_xyz
    x,y,z
loop_
    _atom_site_label
    _atom_site_type_symbol
    _atom_site_fract_x
    _atom_site_fract_y
    _atom_site_fract_z
    _atom_site_occupancy
    Zr0     Zr   0.37652   0.45358   0.66742   1.000
    Zr1     Zr   0.13735   0.54701   0.67194   1.000
    Zr2     Zr   0.12350   0.95357   0.33259   1.000
    Zr3     Zr   0.36269   0.04703   0.32805   1.000
    Zr4     Zr   0.62352   0.54642   0.33258   1.000
    Zr5     Zr   0.86270   0.45300   0.32806   1.000
    Zr6     Zr   0.87655   0.04644   0.66741   1.000
    Zr7     Zr   0.63736   0.95298   0.67195   1.000
    Zr8     Zr   0.37473   0.59892   0.67603   1.000
    Zr9     Zr   0.99673   0.15647   0.66881   1.000
    Zr10    Zr   0.13987   0.40111   0.67371   1.000
    Zr11    Zr   0.51483   0.84424   0.67295   1.000
    Zr12    Zr   0.12530   0.09890   0.32397   1.000
    Zr13    Zr   0.50333   0.65647   0.33119   1.000
    Zr14    Zr   0.36015   0.90112   0.32629   1.000
    Zr15    Zr   0.98523   0.34425   0.32705   1.000
    Zr16    Zr   0.62532   0.40109   0.32397   1.000
    Zr17    Zr   0.00331   0.84353   0.33119   1.000
    Zr18    Zr   0.86017   0.59890   0.32629   1.000
    Zr19    Zr   0.48521   0.15577   0.32705   1.000
    Zr20    Zr   0.87474   0.90110   0.67603   1.000
    Zr21    Zr   0.49671   0.34354   0.66881   1.000
    Zr22    Zr   0.63989   0.09889   0.67371   1.000
    Zr23    Zr   0.01481   0.65576   0.67295   1.000
    Zr24    Zr   0.21862   0.42531   0.67215   1.000
    Zr25    Zr   0.06994   0.43798   0.67598   1.000
    Zr26    Zr   0.91228   0.16653   0.66694   1.000
    Zr27    Zr   0.03071   0.09748   0.66955   1.000
    Zr28    Zr   0.29597   0.57411   0.67516   1.000
    Zr29    Zr   0.44534   0.56241   0.67647   1.000
    Zr30    Zr   0.59916   0.83410   0.67248   1.000
    Zr31    Zr   0.48078   0.90310   0.67248   1.000
    Zr32    Zr   0.28140   0.92533   0.32780   1.000
    Zr33    Zr   0.43009   0.93798   0.32402   1.000
    Zr34    Zr   0.58779   0.66651   0.33306   1.000
    Zr35    Zr   0.46932   0.59748   0.33045   1.000
    Zr36    Zr   0.20405   0.07408   0.32483   1.000
    Zr37    Zr   0.05468   0.06241   0.32354   1.000
    Zr38    Zr   0.90090   0.33413   0.32752   1.000
    Zr39    Zr   0.01925   0.40311   0.32752   1.000
    Zr40    Zr   0.78142   0.57470   0.32785   1.000
    Zr41    Zr   0.93011   0.56203   0.32402   1.000
    Zr42    Zr   0.08777   0.83348   0.33306   1.000
    Zr43    Zr   0.96933   0.90252   0.33045   1.000
    Zr44    Zr   0.70407   0.42590   0.32484   1.000
    Zr45    Zr   0.55470   0.43759   0.32350   1.000
    Zr46    Zr   0.40088   0.16591   0.32752   1.000
    Zr47    Zr   0.51926   0.09691   0.32752   1.000
    Zr48    Zr   0.71864   0.07468   0.67210   1.000
    Zr49    Zr   0.56996   0.06202   0.67598   1.000
    Zr50    Zr   0.41226   0.33349   0.66694   1.000
    Zr51    Zr   0.53072   0.40253   0.66955   1.000
    Zr52    Zr   0.79599   0.92593   0.67517   1.000
    Zr53    Zr   0.94536   0.93759   0.67646   1.000
    Zr54    Zr   0.09914   0.66588   0.67248   1.000
    Zr55    Zr   0.98080   0.59690   0.67248   1.000
    O56     O    0.59001   0.41934   0.32373   1.000
    O57     O    0.58911   0.49201   0.32804   1.000
    O58     O    0.08999   0.08066   0.32375   1.000
    O59     O    0.08909   0.00799   0.32806   1.000
    O60     O    0.66470   0.41349   0.32440   1.000
    O61     O    0.16468   0.08649   0.32440   1.000
    O62     O    0.89514   0.58047   0.32515   1.000
    O63     O    0.89640   0.50751   0.32604   1.000
    O64     O    0.39512   0.91955   0.32515   1.000
    O65     O    0.39639   0.99250   0.32603   1.000
    O66     O    0.28337   0.06055   0.32644   1.000
    O67     O    0.78339   0.43945   0.32645   1.000
    O68     O    0.82079   0.58680   0.32707   1.000
    O69     O    0.32078   0.91322   0.32704   1.000
    O70     O    0.50224   0.12634   0.32728   1.000
    O71     O    0.44305   0.16084   0.32728   1.000
    O72     O    0.00224   0.37368   0.32728   1.000
    O73     O    0.94307   0.33919   0.32728   1.000
    O74     O    0.44097   0.07197   0.32778   1.000
    O75     O    0.94097   0.42805   0.32779   1.000
    O76     O    0.38178   0.10647   0.32778   1.000
    O77     O    0.88180   0.39356   0.32779   1.000
    O78     O    0.20245   0.93945   0.33019   1.000
    O79     O    0.70247   0.56056   0.33021   1.000
    O80     O    0.48633   0.62697   0.33082   1.000
    O81     O    0.54642   0.57195   0.33151   1.000
    O82     O    0.98632   0.87303   0.33082   1.000
    O83     O    0.04641   0.92805   0.33152   1.000
    O84     O    0.04554   0.83851   0.33212   1.000
    O85     O    0.54556   0.66149   0.33212   1.000
    O86     O    0.60565   0.60647   0.33282   1.000
    O87     O    0.10563   0.89352   0.33282   1.000
    O88     O    0.39439   0.39354   0.66718   1.000
    O89     O    0.45448   0.33852   0.66787   1.000
    O90     O    0.89441   0.10648   0.66717   1.000
    O91     O    0.95450   0.16150   0.66787   1.000
    O92     O    0.95363   0.07196   0.66848   1.000
    O93     O    0.79760   0.06056   0.66975   1.000
    O94     O    0.91095   0.99201   0.67193   1.000
    O95     O    0.45362   0.42806   0.66848   1.000
    O96     O    0.29757   0.43945   0.66978   1.000
    O97     O    0.41093   0.50800   0.67195   1.000
    O98     O    0.51371   0.37303   0.66918   1.000
    O99     O    0.01372   0.12698   0.66918   1.000
    O100    O    0.05907   0.57195   0.67221   1.000
    O101    O    0.11824   0.60644   0.67221   1.000
    O102    O    0.21666   0.56056   0.67355   1.000
    O103    O    0.10364   0.49249   0.67396   1.000
    O104    O    0.61826   0.89354   0.67222   1.000
    O105    O    0.55907   0.92804   0.67222   1.000
    O106    O    0.71667   0.93946   0.67356   1.000
    O107    O    0.60366   0.00750   0.67396   1.000
    O108    O    0.67927   0.08679   0.67290   1.000
    O109    O    0.17925   0.41321   0.67293   1.000
    O110    O    0.55700   0.83917   0.67271   1.000
    O111    O    0.49781   0.87367   0.67271   1.000
    O112    O    0.99780   0.62633   0.67271   1.000
    O113    O    0.05698   0.66082   0.67271   1.000
    O114    O    0.60492   0.08046   0.67484   1.000
    O115    O    0.10491   0.41954   0.67484   1.000
    O116    O    0.33535   0.58651   0.67559   1.000
    O117    O    0.83537   0.91352   0.67560   1.000
    O118    O    0.91005   0.91935   0.67624   1.000
    O119    O    0.41003   0.58067   0.67625   1.000
    N120    N    0.36458   0.03279   0.82760   1.000
    O121    O    0.36473   0.03776   0.60607   1.000
    O122    O    0.36070   0.03918   0.04903   1.000
    N123    N    0.36309   0.46733   0.16702   1.000
    O124    O    0.36706   0.46305   0.38890   1.000
    O125    O    0.36943   0.46009   0.94580   1.000
    N126    N    0.86460   0.46722   0.82761   1.000
    O127    O    0.86071   0.46084   0.04904   1.000
    O128    O    0.86474   0.46226   0.60609   1.000
    N129    N    0.13544   0.53278   0.17238   1.000
    O130    O    0.13934   0.53917   0.95095   1.000
    O131    O    0.13530   0.53774   0.39391   1.000
    N132    N    0.37007   0.74528   0.67495   1.000
    O133    O    0.37557   0.69044   0.67545   1.000
    O134    O    0.42709   0.78021   0.67424   1.000
    N135    N    0.63546   0.96721   0.17238   1.000
    O136    O    0.63935   0.96083   0.95095   1.000
    O137    O    0.63531   0.96225   0.39391   1.000
    N138    N    0.13694   0.96732   0.83299   1.000
    O139    O    0.13297   0.96303   0.61109   1.000
    O140    O    0.13059   0.96007   0.05421   1.000
    N141    N    0.86310   0.03269   0.16701   1.000
    O142    O    0.86945   0.03994   0.94579   1.000
    O143    O    0.86708   0.03698   0.38888   1.000
    N144    N    0.14248   0.25479   0.67045   1.000
    O145    O    0.13775   0.30963   0.67174   1.000
    O146    O    0.08509   0.22013   0.66996   1.000
    N147    N    0.85756   0.74522   0.32954   1.000
    O148    O    0.91495   0.77988   0.33004   1.000
    O149    O    0.86229   0.69038   0.32826   1.000
    N150    N    0.63695   0.53267   0.83298   1.000
    O151    O    0.63061   0.53992   0.05420   1.000
    O152    O    0.63299   0.53696   0.61110   1.000
    N153    N    0.87008   0.75475   0.67497   1.000
    O154    O    0.92709   0.71980   0.67425   1.000
    O155    O    0.87558   0.80958   0.67546   1.000
    N156    N    0.64250   0.24520   0.67046   1.000
    O157    O    0.63776   0.19036   0.67174   1.000
    O158    O    0.58509   0.27988   0.66996   1.000
    N159    N    0.35755   0.75480   0.32953   1.000
    O160    O    0.36228   0.80964   0.32825   1.000
    O161    O    0.41495   0.72013   0.33001   1.000
    N162    N    0.12996   0.24526   0.32503   1.000
    O163    O    0.12446   0.19042   0.32453   1.000
    O164    O    0.07295   0.28021   0.32575   1.000
    N165    N    0.62997   0.25473   0.32504   1.000
    O166    O    0.62448   0.30957   0.32454   1.000
    O167    O    0.57295   0.21980   0.32575   1.000
loop_
    _geom_bond_atom_site_label_1
    _geom_bond_atom_site_label_2
    _geom_bond_distance
    _geom_bond_site_symmetry_2
    _ccdc_geom_bond_type
    Zr45   O56       0.64069      .   S
    Zr16   O56       0.64069      .   S
    Zr45   O57       1.20374      .   S
    Zr4    O57       1.20374      .   S
    Zr37   O58       0.64070      .   S
    Zr12   O58       0.64070      .   S
    Zr37   O59       1.20374      .   S
    Zr2    O59       1.20374  1_565   S
    Zr16   O60       0.63740      .   S
    Zr44   O60       0.63740      .   S
    Zr12   O61       0.63740      .   S
    Zr36   O61       0.63740      .   S
    Zr41   O62       0.64082      .   S
    Zr18   O62       0.64082      .   S
    Zr41   O63       1.20257      .   S
    Zr5    O63       1.20257      .   S
    Zr33   O64       0.64083      .   S
    Zr14   O64       0.64083      .   S
    Zr33   O65       1.20254      .   S
    Zr3    O65       1.20254  1_545   S
    Zr36   O66       1.21235      .   S
    Zr3    O66       1.21235      .   S
    Zr44   O67       1.21244      .   S
    Zr5    O67       1.21244      .   S
    Zr18   O68       0.63692      .   S
    Zr40   O68       0.63692      .   S
    Zr14   O69       0.63686      .   S
    Zr32   O69       0.63686      .   S
    Zr19   O70       0.64082      .   S
    Zr47   O70       0.64082      .   S
    Zr19   O71       0.63785      .   S
    Zr46   O71       0.63785      .   S
    Zr15   O72       0.64071  1_655   S
    Zr39   O72       0.64071      .   S
    Zr15   O73       0.63786      .   S
    Zr38   O73       0.63786      .   S
    Zr47   O74       1.27088      .   S
    Zr3    O74       1.27088      .   S
    Zr39   O75       1.27068  1_455   S
    Zr5    O75       1.27068      .   S
    Zr46   O76       1.22229      .   S
    Zr3    O76       1.22229      .   S
    Zr38   O77       1.22215      .   S
    Zr5    O77       1.22215      .   S
    Zr32   O78       1.21638      .   S
    Zr2    O78       1.21638      .   S
    Zr40   O79       1.21641      .   S
    Zr4    O79       1.21641      .   S
    Zr35   O80       0.64183      .   S
    Zr13   O80       0.64183      .   S
    Zr35   O81       1.25751      .   S
    Zr4    O81       1.25751      .   S
    Zr43   O82       0.64173      .   S
    Zr17   O82       0.64173  1_455   S
    Zr43   O83       1.25734  1_655   S
    Zr2    O83       1.25734      .   S
    Zr17   O84       0.63707      .   S
    Zr42   O84       0.63707      .   S
    Zr13   O85       0.63708      .   S
    Zr34   O85       0.63708      .   S
    Zr4    O86       1.22989      .   S
    Zr34   O86       1.22989      .   S
    Zr2    O87       1.22994      .   S
    Zr42   O87       1.22994      .   S
    Zr50   O88       1.22988      .   S
    Zr0    O88       1.22988      .   S
    Zr50   O89       0.63708      .   S
    Zr21   O89       0.63708      .   S
    Zr26   O90       1.22993      .   S
    Zr6    O90       1.22993      .   S
    Zr26   O91       0.63707      .   S
    Zr9    O91       0.63707      .   S
    Zr6    O92       1.25734      .   S
    Zr27   O92       1.25734  1_455   S
    Zr6    O93       1.21628      .   S
    Zr48   O93       1.21628      .   S
    Zr6    O94       1.20374  1_545   S
    Zr53   O94       1.20374      .   S
    Zr0    O95       1.25751      .   S
    Zr51   O95       1.25751      .   S
    Zr0    O96       1.21641      .   S
    Zr24   O96       1.21641      .   S
    Zr0    O97       1.20372      .   S
    Zr29   O97       1.20372      .   S
    Zr21   O98       0.64182      .   S
    Zr51   O98       0.64182      .   S
    Zr9    O99       0.64174  1_655   S
    Zr27   O99       0.64174      .   S
    Zr1    O100      1.27068      .   S
    Zr55   O100      1.27068  1_655   S
    Zr1    O101      1.22215      .   S
    Zr54   O101      1.22215      .   S
    Zr1    O102      1.21244      .   S
    Zr28   O102      1.21244      .   S
    Zr1    O103      1.20257      .   S
    Zr25   O103      1.20257      .   S
    Zr7    O104      1.22229      .   S
    Zr30   O104      1.22229      .   S
    Zr7    O105      1.27088      .   S
    Zr31   O105      1.27088      .   S
    Zr7    O106      1.21234      .   S
    Zr52   O106      1.21234      .   S
    Zr7    O107      1.20254  1_565   S
    Zr49   O107      1.20254      .   S
    Zr48   O108      0.63696      .   S
    Zr22   O108      0.63696      .   S
    Zr24   O109      0.63692      .   S
    Zr10   O109      0.63692      .   S
    Zr30   O110      0.63785      .   S
    Zr11   O110      0.63785      .   S
    Zr31   O111      0.64082      .   S
    Zr11   O111      0.64082      .   S
    Zr55   O112      0.64071      .   S
    Zr23   O112      0.64071  1_455   S
    Zr54   O113      0.63785      .   S
    Zr23   O113      0.63785      .   S
    Zr22   O114      0.64083      .   S
    Zr49   O114      0.64083      .   S
    Zr10   O115      0.64081      .   S
    Zr25   O115      0.64081      .   S
    Zr28   O116      0.63741      .   S
    Zr8    O116      0.63741      .   S
    Zr52   O117      0.63741      .   S
    Zr20   O117      0.63741      .   S
    Zr20   O118      0.64070      .   S
    Zr53   O118      0.64070      .   S
    Zr8    O119      0.64070      .   S
    Zr29   O119      0.64070      .   S
    N120   O121      4.54803      .   S
    Zr3    O121      5.70722      .   S
    N120   O122      4.55155  1_556   S
    Zr3    O122      5.72676      .   S
    N123   O124      4.55079      .   S
    Zr0    O124      5.71077      .   S
    N123   O125      4.55101  1_554   S
    Zr0    O125      5.72423      .   S
    N126   O127      4.55146  1_556   S
    Zr5    O127      5.72677      .   S
    N126   O128      4.54807      .   S
    Zr5    O128      5.70726      .   S
    N129   O130      4.55139  1_554   S
    Zr1    O130      5.72671      .   S
    N129   O131      4.54813      .   S
    Zr1    O131      5.70732      .   S
    N132   O133      1.09950      .   S
    Zr8    O133      1.82992      .   S
    N132   O134      1.10204      .   S
    Zr11   O134      1.83310      .   S
    N135   O136      4.55132  1_554   S
    Zr7    O136      5.72654      .   S
    N135   O137      4.54826      .   S
    Zr7    O137      5.70744      .   S
    N138   O139      4.55108      .   S
    Zr2    O139      5.71034      .   S
    N138   O140      4.55108  1_556   S
    Zr2    O140      5.72430      .   S
    N141   O142      4.55102  1_554   S
    Zr6    O142      5.72424      .   S
    N141   O143      4.55063      .   S
    Zr6    O143      5.71092      .   S
    N144   O145      1.09923      .   S
    Zr10   O145      1.82964      .   S
    N144   O146      1.10142      .   S
    Zr9    O146      1.83175  1_655   S
    N147   O148      1.10141      .   S
    Zr17   O148      1.83175  1_455   S
    N147   O149      1.09923      .   S
    Zr18   O149      1.82964      .   S
    N150   O151      4.55105  1_556   S
    Zr4    O151      5.72428      .   S
    N150   O152      4.55075      .   S
    Zr4    O152      5.71072      .   S
    N153   O154      1.10194      .   S
    Zr23   O154      1.83285  1_455   S
    N153   O155      1.09950      .   S
    Zr20   O155      1.82992      .   S
    N156   O157      1.09921      .   S
    Zr22   O157      1.82960      .   S
    N156   O158      1.10148      .   S
    Zr21   O158      1.83197      .   S
    N159   O160      1.09921      .   S
    Zr14   O160      1.82961      .   S
    N159   O161      1.10150      .   S
    Zr13   O161      1.83195      .   S
    N162   O163      1.09950      .   S
    Zr12   O163      1.82993      .   S
    N162   O164      1.10195      .   S
    Zr15   O164      1.83285  1_655   S
    N165   O166      1.09949      .   S
    Zr16   O166      1.82992      .   S
    N165   O167      1.10204      .   S
    Zr19   O167      1.83310      .   S
