# CIF file generated by openbabel 2.4.90, see http://openbabel.sf.net
data_I
_chemical_name_common ''
_cell_length_a 14.926
_cell_length_b 19.994
_cell_length_c 20.525
_cell_angle_alpha 89.998
_cell_angle_beta 94.364
_cell_angle_gamma 89.993
_space_group_name_H-M_alt 'P 1'
_space_group_name_Hall 'P 1'
loop_
    _symmetry_equiv_pos_as_xyz
    x,y,z
loop_
    _atom_site_label
    _atom_site_type_symbol
    _atom_site_fract_x
    _atom_site_fract_y
    _atom_site_fract_z
    _atom_site_occupancy
    C0      C    0.37652   0.45358   0.66742   1.000
    C1      C    0.13735   0.54701   0.67194   1.000
    C2      C    0.12350   0.95357   0.33259   1.000
    C3      C    0.36269   0.04703   0.32805   1.000
    C4      C    0.62352   0.54642   0.33258   1.000
    C5      C    0.86270   0.45300   0.32806   1.000
    C6      C    0.87655   0.04644   0.66741   1.000
    C7      C    0.63736   0.95298   0.67195   1.000
    C8      C    0.39504   0.52871   0.33741   1.000
    C9      C    0.32507   0.41463   0.00208   1.000
    C10     C    0.09423   0.47302   0.33950   1.000
    C11     C    0.18118   0.58152   0.01407   1.000
    C12     C    0.35053   0.56755   0.24517   1.000
    C13     C    0.36089   0.59141   0.12773   1.000
    C14     C    0.37802   0.38005   0.08863   1.000
    C15     C    0.36298   0.35643   0.20562   1.000
    C16     C    0.40997   0.56238   0.55803   1.000
    C17     C    0.40778   0.57651   0.43740   1.000
    C18     C    0.31803   0.37165   0.41759   1.000
    C19     C    0.32329   0.36600   0.53919   1.000
    C20     C    0.44266   0.54222   0.79098   1.000
    C21     C    0.43073   0.55217   0.91133   1.000
    C22     C    0.29165   0.36240   0.90252   1.000
    C23     C    0.30646   0.36191   0.78236   1.000
    C24     C    0.12790   0.64502   0.20950   1.000
    C25     C    0.11444   0.62044   0.09063   1.000
    C26     C    0.12367   0.40938   0.13330   1.000
    C27     C    0.13217   0.43398   0.25159   1.000
    C28     C    0.17244   0.63682   0.54745   1.000
    C29     C    0.17144   0.63111   0.42598   1.000
    C30     C    0.08727   0.42518   0.43877   1.000
    C31     C    0.09060   0.43950   0.55925   1.000
    C32     C    0.22201   0.63219   0.79857   1.000
    C33     C    0.22625   0.63195   0.92019   1.000
    C34     C    0.07521   0.44740   0.90716   1.000
    C35     C    0.07629   0.45609   0.78591   1.000
    C36     C    0.25100   0.71169   0.67555   1.000
    C37     C    0.32099   0.83261   0.67433   1.000
    C38     C    0.26187   0.28773   0.66992   1.000
    C39     C    0.19049   0.16725   0.66850   1.000
    C40     C    0.10500   0.02871   0.66259   1.000
    C41     C    0.17498   0.91463   0.99793   1.000
    C42     C    0.40579   0.97302   0.66000   1.000
    C43     C    0.31881   0.08152   0.98592   1.000
    C44     C    0.14949   0.06754   0.75483   1.000
    C45     C    0.13914   0.09141   0.87226   1.000
    C46     C    0.12203   0.88006   0.91139   1.000
    C47     C    0.13706   0.85642   0.79440   1.000
    C48     C    0.09005   0.06236   0.44197   1.000
    C49     C    0.09227   0.07650   0.56252   1.000
    C50     C    0.18199   0.87161   0.58243   1.000
    C51     C    0.17671   0.86595   0.46083   1.000
    C52     C    0.05736   0.04222   0.20902   1.000
    C53     C    0.06931   0.05217   0.08868   1.000
    C54     C    0.20838   0.86237   0.09750   1.000
    C55     C    0.19355   0.86188   0.21765   1.000
    C56     C    0.37211   0.14502   0.79048   1.000
    C57     C    0.38556   0.12044   0.90937   1.000
    C58     C    0.37636   0.90938   0.86670   1.000
    C59     C    0.36788   0.93399   0.74841   1.000
    C60     C    0.32762   0.13685   0.45255   1.000
    C61     C    0.32861   0.13114   0.57402   1.000
    C62     C    0.41274   0.92518   0.56123   1.000
    C63     C    0.40941   0.93951   0.44075   1.000
    C64     C    0.27802   0.13222   0.20142   1.000
    C65     C    0.27375   0.13197   0.07979   1.000
    C66     C    0.42481   0.94739   0.09285   1.000
    C67     C    0.42375   0.95610   0.21410   1.000
    C68     C    0.24903   0.21165   0.32444   1.000
    C69     C    0.17904   0.33259   0.32567   1.000
    C70     C    0.23816   0.78777   0.33008   1.000
    C71     C    0.30953   0.66727   0.33145   1.000
    C72     C    0.60500   0.47130   0.66259   1.000
    C73     C    0.67497   0.58538   0.99792   1.000
    C74     C    0.90581   0.52699   0.66050   1.000
    C75     C    0.81886   0.41849   0.98593   1.000
    C76     C    0.64951   0.43246   0.75483   1.000
    C77     C    0.63916   0.40860   0.87227   1.000
    C78     C    0.62202   0.61995   0.91137   1.000
    C79     C    0.63706   0.64358   0.79438   1.000
    C80     C    0.59007   0.43763   0.44197   1.000
    C81     C    0.59226   0.42349   0.56250   1.000
    C82     C    0.68201   0.62836   0.58241   1.000
    C83     C    0.67675   0.63401   0.46081   1.000
    C84     C    0.55738   0.45778   0.20902   1.000
    C85     C    0.56931   0.44784   0.08860   1.000
    C86     C    0.70839   0.63761   0.09748   1.000
    C87     C    0.69358   0.63810   0.21764   1.000
    C88     C    0.87215   0.35499   0.79040   1.000
    C89     C    0.88561   0.37957   0.90937   1.000
    C90     C    0.87637   0.59063   0.86670   1.000
    C91     C    0.86787   0.56603   0.74841   1.000
    C92     C    0.82760   0.36319   0.45250   1.000
    C93     C    0.82860   0.36890   0.57402   1.000
    C94     C    0.91277   0.57483   0.56123   1.000
    C95     C    0.90944   0.56051   0.44075   1.000
    C96     C    0.77804   0.36782   0.20143   1.000
    C97     C    0.77379   0.36805   0.07981   1.000
    C98     C    0.92483   0.55261   0.09284   1.000
    C99     C    0.92375   0.54392   0.21409   1.000
    C100    C    0.74905   0.28832   0.32445   1.000
    C101    C    0.67905   0.16739   0.32567   1.000
    C102    C    0.73817   0.71228   0.33008   1.000
    C103    C    0.80955   0.83276   0.33146   1.000
    C104    C    0.89504   0.97130   0.33741   1.000
    C105    C    0.82506   0.08538   0.00207   1.000
    C106    C    0.59425   0.02698   0.33950   1.000
    C107    C    0.68123   0.91849   0.01408   1.000
    C108    C    0.85056   0.93247   0.24517   1.000
    C109    C    0.86091   0.90860   0.12774   1.000
    C110    C    0.87802   0.11995   0.08861   1.000
    C111    C    0.86298   0.14358   0.20560   1.000
    C112    C    0.90999   0.93765   0.55803   1.000
    C113    C    0.90778   0.92350   0.43748   1.000
    C114    C    0.81806   0.12839   0.41757   1.000
    C115    C    0.82333   0.13406   0.53917   1.000
    C116    C    0.94269   0.95778   0.79098   1.000
    C117    C    0.93073   0.94783   0.91132   1.000
    C118    C    0.79166   0.13764   0.90250   1.000
    C119    C    0.80650   0.13813   0.78235   1.000
    C120    C    0.62793   0.85498   0.20952   1.000
    C121    C    0.61448   0.87957   0.09060   1.000
    C122    C    0.62368   0.09062   0.13330   1.000
    C123    C    0.63216   0.06602   0.25159   1.000
    C124    C    0.67243   0.86316   0.54745   1.000
    C125    C    0.67143   0.86887   0.42598   1.000
    C126    C    0.58731   0.07483   0.43877   1.000
    C127    C    0.59063   0.06050   0.55920   1.000
    C128    C    0.72202   0.86778   0.79850   1.000
    C129    C    0.72629   0.86804   0.92021   1.000
    C130    C    0.57524   0.05262   0.90715   1.000
    C131    C    0.57630   0.04391   0.78590   1.000
    C132    C    0.75101   0.78836   0.67556   1.000
    C133    C    0.82100   0.66742   0.67433   1.000
    C134    C    0.76189   0.21224   0.66992   1.000
    C135    C    0.69051   0.33274   0.66855   1.000
    C136    C    0.34084   0.43902   0.30170   1.000
    C137    C    0.37337   0.50739   0.02979   1.000
    C138    C    0.35507   0.45972   0.23295   1.000
    C139    C    0.35535   0.52617   0.21114   1.000
    C140    C    0.36081   0.53995   0.14510   1.000
    C141    C    0.36661   0.48812   0.09956   1.000
    C142    C    0.36885   0.42163   0.12193   1.000
    C143    C    0.36250   0.40771   0.18774   1.000
    C144    C    0.38874   0.52158   0.52531   1.000
    C145    C    0.38770   0.52925   0.45832   1.000
    C146    C    0.36193   0.47517   0.41714   1.000
    C147    C    0.33804   0.41497   0.44696   1.000
    C148    C    0.34098   0.41202   0.51469   1.000
    C149    C    0.40920   0.50367   0.81777   1.000
    C150    C    0.40347   0.50901   0.88472   1.000
    C151    C    0.36106   0.45757   0.91722   1.000
    C152    C    0.32606   0.40336   0.87975   1.000
    C153    C    0.33402   0.40270   0.81291   1.000
    C154    C    0.14705   0.56280   0.30856   1.000
    C155    C    0.11807   0.49314   0.03350   1.000
    C156    C    0.13199   0.54183   0.23836   1.000
    C157    C    0.12684   0.59360   0.19196   1.000
    C158    C    0.12149   0.57926   0.12554   1.000
    C159    C    0.12224   0.51255   0.10396   1.000
    C160    C    0.12470   0.46097   0.15032   1.000
    C161    C    0.12933   0.47523   0.21688   1.000
    C162    C    0.15433   0.59061   0.52144   1.000
    C163    C    0.15386   0.58762   0.45385   1.000
    C164    C    0.13004   0.52700   0.42214   1.000
    C165    C    0.10740   0.47269   0.46128   1.000
    C166    C    0.10946   0.48049   0.52825   1.000
    C167    C    0.18979   0.59236   0.82456   1.000
    C168    C    0.19142   0.59212   0.89221   1.000
    C169    C    0.14935   0.53973   0.92401   1.000
    C170    C    0.10790   0.48914   0.88509   1.000
    C171    C    0.10911   0.49384   0.81772   1.000
    C172    C    0.37473   0.59892   0.67603   1.000
    C173    C    0.99673   0.15647   0.66881   1.000
    C174    C    0.38740   0.67228   0.67588   1.000
    C175    C    0.32264   0.72218   0.67548   1.000
    C176    C    0.36039   0.78689   0.67450   1.000
    C177    C    0.45339   0.78606   0.67412   1.000
    C178    C    0.13987   0.40111   0.67371   1.000
    C179    C    0.51483   0.84424   0.67295   1.000
    C180    C    0.12615   0.32784   0.67233   1.000
    C181    C    0.19021   0.27761   0.67069   1.000
    C182    C    0.15162   0.21314   0.66961   1.000
    C183    C    0.05866   0.21445   0.67011   1.000
    C184    C    0.15920   0.93901   0.69831   1.000
    C185    C    0.12666   0.00739   0.97022   1.000
    C186    C    0.14496   0.95972   0.76706   1.000
    C187    C    0.14467   0.02616   0.78886   1.000
    C188    C    0.13922   0.03995   0.85490   1.000
    C189    C    0.13343   0.98812   0.90045   1.000
    C190    C    0.13119   0.92163   0.87809   1.000
    C191    C    0.13754   0.90771   0.81228   1.000
    C192    C    0.11129   0.02156   0.47469   1.000
    C193    C    0.11234   0.02923   0.54168   1.000
    C194    C    0.13811   0.97515   0.58280   1.000
    C195    C    0.16199   0.91494   0.55305   1.000
    C196    C    0.15904   0.91199   0.48533   1.000
    C197    C    0.09082   0.00367   0.18223   1.000
    C198    C    0.09657   0.00901   0.11529   1.000
    C199    C    0.13898   0.95756   0.08279   1.000
    C200    C    0.17397   0.90334   0.12026   1.000
    C201    C    0.16599   0.90268   0.18710   1.000
    C202    C    0.35299   0.06281   0.69143   1.000
    C203    C    0.38195   0.99314   0.96650   1.000
    C204    C    0.36803   0.04184   0.76164   1.000
    C205    C    0.37318   0.09360   0.80803   1.000
    C206    C    0.37852   0.07926   0.87440   1.000
    C207    C    0.37777   0.01255   0.89604   1.000
    C208    C    0.37534   0.96098   0.84968   1.000
    C209    C    0.37071   0.97524   0.78312   1.000
    C210    C    0.34572   0.09063   0.47855   1.000
    C211    C    0.34618   0.08764   0.54614   1.000
    C212    C    0.36999   0.02701   0.57780   1.000
    C213    C    0.39263   0.97270   0.53872   1.000
    C214    C    0.39056   0.98050   0.47174   1.000
    C215    C    0.31024   0.09238   0.17543   1.000
    C216    C    0.30860   0.09213   0.10778   1.000
    C217    C    0.35065   0.03973   0.07599   1.000
    C218    C    0.39212   0.98914   0.11491   1.000
    C219    C    0.39092   0.99385   0.18228   1.000
    C220    C    0.12530   0.09890   0.32397   1.000
    C221    C    0.50333   0.65647   0.33119   1.000
    C222    C    0.11263   0.17227   0.32410   1.000
    C223    C    0.17739   0.22216   0.32450   1.000
    C224    C    0.13965   0.28687   0.32545   1.000
    C225    C    0.04664   0.28606   0.32588   1.000
    C226    C    0.36015   0.90112   0.32629   1.000
    C227    C    0.98523   0.34425   0.32705   1.000
    C228    C    0.37388   0.82785   0.32767   1.000
    C229    C    0.30982   0.77764   0.32931   1.000
    C230    C    0.34840   0.71315   0.33039   1.000
    C231    C    0.44137   0.71445   0.32980   1.000
    C232    C    0.65921   0.56099   0.69830   1.000
    C233    C    0.62667   0.49262   0.97021   1.000
    C234    C    0.64497   0.54029   0.76705   1.000
    C235    C    0.64469   0.47384   0.78886   1.000
    C236    C    0.63923   0.46006   0.85490   1.000
    C237    C    0.63343   0.51189   0.90044   1.000
    C238    C    0.63119   0.57838   0.87807   1.000
    C239    C    0.63754   0.59229   0.81226   1.000
    C240    C    0.61131   0.47843   0.47469   1.000
    C241    C    0.61234   0.47076   0.54168   1.000
    C242    C    0.63811   0.52484   0.58286   1.000
    C243    C    0.66200   0.58504   0.55304   1.000
    C244    C    0.65907   0.58799   0.48531   1.000
    C245    C    0.59084   0.49633   0.18223   1.000
    C246    C    0.59658   0.49099   0.11528   1.000
    C247    C    0.63899   0.54244   0.08278   1.000
    C248    C    0.67398   0.59664   0.12025   1.000
    C249    C    0.66602   0.59731   0.18709   1.000
    C250    C    0.85300   0.43721   0.69144   1.000
    C251    C    0.88197   0.50687   0.96650   1.000
    C252    C    0.86805   0.45817   0.76164   1.000
    C253    C    0.87321   0.40641   0.80804   1.000
    C254    C    0.87856   0.42075   0.87446   1.000
    C255    C    0.87780   0.48746   0.89604   1.000
    C256    C    0.87535   0.53904   0.84968   1.000
    C257    C    0.87072   0.52478   0.78312   1.000
    C258    C    0.84571   0.40940   0.47856   1.000
    C259    C    0.84618   0.41239   0.54615   1.000
    C260    C    0.87001   0.47301   0.57786   1.000
    C261    C    0.89265   0.52731   0.53872   1.000
    C262    C    0.89058   0.51952   0.47175   1.000
    C263    C    0.81026   0.40765   0.17544   1.000
    C264    C    0.80863   0.40789   0.10779   1.000
    C265    C    0.85069   0.46027   0.07599   1.000
    C266    C    0.89214   0.51087   0.11490   1.000
    C267    C    0.89093   0.50617   0.18228   1.000
    C268    C    0.62532   0.40109   0.32397   1.000
    C269    C    0.00331   0.84353   0.33119   1.000
    C270    C    0.61265   0.32773   0.32412   1.000
    C271    C    0.67741   0.27782   0.32452   1.000
    C272    C    0.63966   0.21312   0.32545   1.000
    C273    C    0.54665   0.21395   0.32588   1.000
    C274    C    0.86017   0.59890   0.32629   1.000
    C275    C    0.48521   0.15577   0.32705   1.000
    C276    C    0.87389   0.67217   0.32767   1.000
    C277    C    0.80983   0.72239   0.32931   1.000
    C278    C    0.84842   0.78687   0.33039   1.000
    C279    C    0.94138   0.78556   0.32989   1.000
    C280    C    0.84085   0.06100   0.30169   1.000
    C281    C    0.87338   0.99262   0.02978   1.000
    C282    C    0.85508   0.04029   0.23294   1.000
    C283    C    0.85537   0.97385   0.21114   1.000
    C284    C    0.86083   0.96006   0.14510   1.000
    C285    C    0.86662   0.01189   0.09955   1.000
    C286    C    0.86885   0.07838   0.12191   1.000
    C287    C    0.86250   0.09230   0.18772   1.000
    C288    C    0.88875   0.97845   0.52531   1.000
    C289    C    0.88770   0.97078   0.45832   1.000
    C290    C    0.86193   0.02486   0.41714   1.000
    C291    C    0.83806   0.08507   0.44695   1.000
    C292    C    0.84101   0.08802   0.51460   1.000
    C293    C    0.90923   0.99634   0.81777   1.000
    C294    C    0.90348   0.99100   0.88471   1.000
    C295    C    0.86106   0.04244   0.91721   1.000
    C296    C    0.82607   0.09666   0.87974   1.000
    C297    C    0.83405   0.09733   0.81290   1.000
    C298    C    0.64706   0.93719   0.30857   1.000
    C299    C    0.61810   0.00687   0.03350   1.000
    C300    C    0.63201   0.95817   0.23836   1.000
    C301    C    0.62687   0.90641   0.19197   1.000
    C302    C    0.62152   0.92075   0.12550   1.000
    C303    C    0.62227   0.98745   0.10396   1.000
    C304    C    0.62471   0.03903   0.15032   1.000
    C305    C    0.62933   0.02477   0.21688   1.000
    C306    C    0.65432   0.90937   0.52145   1.000
    C307    C    0.65387   0.91237   0.45386   1.000
    C308    C    0.63005   0.97299   0.42215   1.000
    C309    C    0.60742   0.02730   0.46128   1.000
    C310    C    0.60948   0.01951   0.52826   1.000
    C311    C    0.68981   0.90762   0.82457   1.000
    C312    C    0.69145   0.90787   0.89222   1.000
    C313    C    0.64939   0.96028   0.92401   1.000
    C314    C    0.60792   0.01087   0.88509   1.000
    C315    C    0.60912   0.00616   0.81770   1.000
    C316    C    0.87474   0.90110   0.67603   1.000
    C317    C    0.49671   0.34354   0.66881   1.000
    C318    C    0.88741   0.82774   0.67589   1.000
    C319    C    0.82265   0.77785   0.67549   1.000
    C320    C    0.86040   0.71314   0.67455   1.000
    C321    C    0.95340   0.71395   0.67413   1.000
    C322    C    0.63989   0.09889   0.67371   1.000
    C323    C    0.01481   0.65576   0.67295   1.000
    C324    C    0.62616   0.17216   0.67233   1.000
    C325    C    0.69023   0.22237   0.67069   1.000
    C326    C    0.65164   0.28686   0.66960   1.000
    C327    C    0.55867   0.28555   0.67012   1.000
    C328    C    0.01837   0.29550   0.67200   1.000
    C329    C    0.49470   0.70522   0.67482   1.000
    C330    C    0.48166   0.79549   0.32800   1.000
    C331    C    0.00533   0.20523   0.32517   1.000
    C332    C    0.98168   0.70451   0.32800   1.000
    C333    C    0.50534   0.29479   0.32518   1.000
    C334    C    0.51838   0.20452   0.67200   1.000
    C335    C    0.99471   0.79478   0.67483   1.000
    C336    C    0.36316   0.48508   0.35002   1.000
    C337    C    0.36552   0.46394   0.55414   1.000
    C338    C    0.35299   0.45680   0.98454   1.000
    C339    C    0.37502   0.45209   0.78174   1.000
    C340    C    0.12623   0.51681   0.35487   1.000
    C341    C    0.13298   0.53840   0.55894   1.000
    C342    C    0.15035   0.54110   0.99207   1.000
    C343    C    0.14911   0.54409   0.78711   1.000
    C344    C    0.13688   0.98507   0.64998   1.000
    C345    C    0.13449   0.96391   0.44580   1.000
    C346    C    0.14706   0.95679   0.01547   1.000
    C347    C    0.12499   0.95207   0.21827   1.000
    C348    C    0.37379   0.01682   0.64513   1.000
    C349    C    0.36706   0.03842   0.44105   1.000
    C350    C    0.34965   0.04109   0.00792   1.000
    C351    C    0.35092   0.04411   0.21289   1.000
    C352    C    0.63688   0.51492   0.64998   1.000
    C353    C    0.63452   0.53606   0.44586   1.000
    C354    C    0.64706   0.54321   0.01546   1.000
    C355    C    0.62502   0.54792   0.21826   1.000
    C356    C    0.87381   0.48320   0.64513   1.000
    C357    C    0.86707   0.46161   0.44106   1.000
    C358    C    0.84969   0.45891   0.00793   1.000
    C359    C    0.85093   0.45592   0.21289   1.000
    C360    C    0.86316   0.01494   0.35002   1.000
    C361    C    0.86555   0.03609   0.55410   1.000
    C362    C    0.85298   0.04322   0.98453   1.000
    C363    C    0.87505   0.04793   0.78173   1.000
    C364    C    0.62625   0.98319   0.35487   1.000
    C365    C    0.63298   0.96159   0.55895   1.000
    C366    C    0.65040   0.95892   0.99208   1.000
    C367    C    0.64912   0.95590   0.78711   1.000
    C368    C    0.30844   0.38342   0.31183   1.000
    C369    C    0.39463   0.56434   0.01366   1.000
    C370    C    0.17901   0.61861   0.32202   1.000
    C371    C    0.08963   0.43820   0.01399   1.000
    C372    C    0.21862   0.42531   0.67215   1.000
    C373    C    0.06994   0.43798   0.67598   1.000
    C374    C    0.91228   0.16653   0.66694   1.000
    C375    C    0.03071   0.09748   0.66955   1.000
    C376    C    0.29597   0.57411   0.67516   1.000
    C377    C    0.44534   0.56241   0.67647   1.000
    C378    C    0.59916   0.83410   0.67248   1.000
    C379    C    0.48078   0.90310   0.67248   1.000
    C380    C    0.19158   0.88340   0.68819   1.000
    C381    C    0.10540   0.06435   0.98634   1.000
    C382    C    0.32104   0.11863   0.67798   1.000
    C383    C    0.41040   0.93820   0.98601   1.000
    C384    C    0.28140   0.92533   0.32780   1.000
    C385    C    0.43009   0.93798   0.32402   1.000
    C386    C    0.58779   0.66651   0.33306   1.000
    C387    C    0.46932   0.59748   0.33045   1.000
    C388    C    0.20405   0.07408   0.32483   1.000
    C389    C    0.05468   0.06241   0.32354   1.000
    C390    C    0.90090   0.33413   0.32752   1.000
    C391    C    0.01925   0.40311   0.32752   1.000
    C392    C    0.69160   0.61658   0.68817   1.000
    C393    C    0.60542   0.43567   0.98634   1.000
    C394    C    0.82103   0.38140   0.67790   1.000
    C395    C    0.91042   0.56181   0.98601   1.000
    C396    C    0.78142   0.57470   0.32785   1.000
    C397    C    0.93011   0.56203   0.32402   1.000
    C398    C    0.08777   0.83348   0.33306   1.000
    C399    C    0.96933   0.90252   0.33045   1.000
    C400    C    0.70407   0.42590   0.32484   1.000
    C401    C    0.55470   0.43759   0.32350   1.000
    C402    C    0.40088   0.16591   0.32752   1.000
    C403    C    0.51926   0.09691   0.32752   1.000
    C404    C    0.80846   0.11661   0.31181   1.000
    C405    C    0.89465   0.93566   0.01366   1.000
    C406    C    0.67901   0.88137   0.32202   1.000
    C407    C    0.58964   0.06181   0.01399   1.000
    C408    C    0.71864   0.07468   0.67210   1.000
    C409    C    0.56996   0.06202   0.67598   1.000
    C410    C    0.41226   0.33349   0.66694   1.000
    C411    C    0.53072   0.40253   0.66955   1.000
    C412    C    0.79599   0.92593   0.67517   1.000
    C413    C    0.94536   0.93759   0.67646   1.000
    C414    C    0.09914   0.66588   0.67248   1.000
    C415    C    0.98080   0.59690   0.67248   1.000
    O416    O    0.83902   0.06430   0.99330   1.000
    O417    O    0.33903   0.43571   0.99331   1.000
    O418    O    0.35015   0.04041   0.04195   1.000
    O419    O    0.36580   0.01712   0.98721   1.000
    O420    O    0.33423   0.06130   0.99692   1.000
    O421    O    0.85019   0.45959   0.04196   1.000
    O422    O    0.86583   0.48289   0.98721   1.000
    O423    O    0.83428   0.43870   0.99693   1.000
    O424    O    0.38400   0.53586   0.02172   1.000
    O425    O    0.88401   0.96414   0.02172   1.000
    O426    O    0.10385   0.46567   0.02374   1.000
    O427    O    0.60387   0.03434   0.02374   1.000
    O428    O    0.16577   0.56131   0.00307   1.000
    O429    O    0.66582   0.93870   0.00308   1.000
    O430    O    0.64302   0.54282   0.04912   1.000
    O431    O    0.63686   0.51792   0.99283   1.000
    O432    O    0.66102   0.56430   0.00669   1.000
    O433    O    0.14302   0.95718   0.04913   1.000
    O434    O    0.13686   0.98209   0.99284   1.000
    O435    O    0.16102   0.93571   0.00670   1.000
    O436    O    0.87000   0.00225   0.06466   1.000
    O437    O    0.86318   0.01792   0.00715   1.000
    O438    O    0.36999   0.49775   0.06467   1.000
    O439    O    0.36318   0.48209   0.00716   1.000
    O440    O    0.12016   0.50284   0.06873   1.000
    O441    O    0.13421   0.51712   0.01278   1.000
    O442    O    0.62018   0.99716   0.06873   1.000
    O443    O    0.63425   0.98289   0.01279   1.000
    O444    O    0.82966   0.43408   0.09189   1.000
    O445    O    0.87142   0.48557   0.09544   1.000
    O446    O    0.32963   0.06593   0.09188   1.000
    O447    O    0.37139   0.01444   0.09545   1.000
    O448    O    0.29117   0.11205   0.09378   1.000
    O449    O    0.79121   0.38797   0.09380   1.000
    O450    O    0.61778   0.51671   0.09903   1.000
    O451    O    0.65649   0.56954   0.10151   1.000
    O452    O    0.11777   0.98329   0.09904   1.000
    O453    O    0.15648   0.93046   0.10152   1.000
    O454    O    0.58294   0.46942   0.10194   1.000
    O455    O    0.87343   0.09916   0.10526   1.000
    O456    O    0.37344   0.40084   0.10528   1.000
    O457    O    0.08294   0.03059   0.10198   1.000
    O458    O    0.61800   0.90016   0.10805   1.000
    O459    O    0.11796   0.59985   0.10809   1.000
    O460    O    0.90849   0.53174   0.10387   1.000
    O461    O    0.40846   0.96826   0.10388   1.000
    O462    O    0.69119   0.61713   0.10886   1.000
    O463    O    0.19117   0.88286   0.10888   1.000
    O464    O    0.86773   0.04513   0.11073   1.000
    O465    O    0.86372   0.98598   0.12232   1.000
    O466    O    0.36773   0.45487   0.11074   1.000
    O467    O    0.36371   0.51403   0.12233   1.000
    O468    O    0.62190   0.95410   0.11473   1.000
    O469    O    0.62349   0.01324   0.12714   1.000
    O470    O    0.12186   0.54590   0.11475   1.000
    O471    O    0.12347   0.48676   0.12714   1.000
    O472    O    0.30942   0.09226   0.14161   1.000
    O473    O    0.80944   0.40777   0.14161   1.000
    O474    O    0.89154   0.50852   0.14859   1.000
    O475    O    0.39152   0.99149   0.14859   1.000
    O476    O    0.59371   0.49366   0.14875   1.000
    O477    O    0.09369   0.00634   0.14876   1.000
    O478    O    0.67000   0.59697   0.15367   1.000
    O479    O    0.16998   0.90301   0.15368   1.000
    O480    O    0.86568   0.08534   0.15481   1.000
    O481    O    0.36568   0.41467   0.15483   1.000
    O482    O    0.62419   0.91358   0.15873   1.000
    O483    O    0.12416   0.58643   0.15875   1.000
    O484    O    0.36085   0.56568   0.13641   1.000
    O485    O    0.86087   0.93433   0.13642   1.000
    O486    O    0.12419   0.43517   0.14181   1.000
    O487    O    0.62419   0.06483   0.14181   1.000
    O488    O    0.35808   0.53306   0.17812   1.000
    O489    O    0.85810   0.96695   0.17812   1.000
    O490    O    0.12701   0.46810   0.18360   1.000
    O491    O    0.62702   0.03190   0.18360   1.000
    O492    O    0.29413   0.11230   0.18842   1.000
    O493    O    0.33058   0.06825   0.19416   1.000
    O494    O    0.79415   0.38773   0.18843   1.000
    O495    O    0.83059   0.43178   0.19416   1.000
    O496    O    0.07409   0.02294   0.19562   1.000
    O497    O    0.10790   0.97787   0.20025   1.000
    O498    O    0.57411   0.47706   0.19562   1.000
    O499    O    0.60793   0.52213   0.20024   1.000
    O500    O    0.87093   0.48105   0.19759   1.000
    O501    O    0.90734   0.52504   0.19819   1.000
    O502    O    0.37092   0.01898   0.19759   1.000
    O503    O    0.40733   0.97497   0.19819   1.000
    O504    O    0.67980   0.61770   0.20236   1.000
    O505    O    0.64552   0.57261   0.20267   1.000
    O506    O    0.17977   0.88228   0.20237   1.000
    O507    O    0.14549   0.92738   0.20268   1.000
    O508    O    0.86274   0.11794   0.19666   1.000
    O509    O    0.85879   0.06629   0.21033   1.000
    O510    O    0.36274   0.38207   0.19668   1.000
    O511    O    0.35879   0.43372   0.21034   1.000
    O512    O    0.12737   0.61931   0.20073   1.000
    O513    O    0.12941   0.56772   0.21516   1.000
    O514    O    0.62740   0.88070   0.20074   1.000
    O515    O    0.62944   0.93229   0.21516   1.000
    O516    O    0.85523   0.00707   0.22204   1.000
    O517    O    0.85296   0.95316   0.22815   1.000
    O518    O    0.35521   0.49295   0.22204   1.000
    O519    O    0.35294   0.54686   0.22815   1.000
    O520    O    0.85681   0.45446   0.27047   1.000
    O521    O    0.35681   0.04557   0.27047   1.000
    O522    O    0.13066   0.50853   0.22762   1.000
    O523    O    0.13075   0.45460   0.23423   1.000
    O524    O    0.63067   0.99147   0.22762   1.000
    O525    O    0.63075   0.04539   0.23423   1.000
    O526    O    0.62427   0.54717   0.27542   1.000
    O527    O    0.12424   0.95282   0.27543   1.000
    O528    O    0.84796   0.05065   0.26732   1.000
    O529    O    0.34796   0.44937   0.26732   1.000
    O530    O    0.13952   0.55232   0.27346   1.000
    O531    O    0.63953   0.94768   0.27347   1.000
    O532    O    0.82466   0.08880   0.30675   1.000
    O533    O    0.85200   0.03797   0.32585   1.000
    O534    O    0.32464   0.41122   0.30676   1.000
    O535    O    0.35200   0.46205   0.32586   1.000
    O536    O    0.16303   0.59070   0.31529   1.000
    O537    O    0.13664   0.53980   0.33171   1.000
    O538    O    0.66303   0.90928   0.31529   1.000
    O539    O    0.63665   0.96019   0.33172   1.000
    O540    O    0.59001   0.41934   0.32373   1.000
    O541    O    0.58911   0.49201   0.32804   1.000
    O542    O    0.08999   0.08066   0.32375   1.000
    O543    O    0.08909   0.00799   0.32806   1.000
    O544    O    0.61898   0.36441   0.32404   1.000
    O545    O    0.66470   0.41349   0.32440   1.000
    O546    O    0.11897   0.13558   0.32403   1.000
    O547    O    0.16468   0.08649   0.32440   1.000
    O548    O    0.89514   0.58047   0.32515   1.000
    O549    O    0.89640   0.50751   0.32604   1.000
    O550    O    0.39512   0.91955   0.32515   1.000
    O551    O    0.39639   0.99250   0.32603   1.000
    O552    O    0.14501   0.19721   0.32430   1.000
    O553    O    0.05898   0.18875   0.32463   1.000
    O554    O    0.64503   0.30278   0.32432   1.000
    O555    O    0.55900   0.31126   0.32465   1.000
    O556    O    0.21321   0.21691   0.32447   1.000
    O557    O    0.71323   0.28307   0.32448   1.000
    O558    O    0.15852   0.25451   0.32497   1.000
    O559    O    0.65853   0.24547   0.32498   1.000
    O560    O    0.28337   0.06055   0.32644   1.000
    O561    O    0.78339   0.43945   0.32645   1.000
    O562    O    0.02599   0.24564   0.32552   1.000
    O563    O    0.52600   0.25437   0.32553   1.000
    O564    O    0.65935   0.19026   0.32556   1.000
    O565    O    0.59316   0.21354   0.32566   1.000
    O566    O    0.15934   0.30973   0.32556   1.000
    O567    O    0.09314   0.28646   0.32566   1.000
    O568    O    0.51593   0.18486   0.32646   1.000
    O569    O    0.01594   0.31515   0.32646   1.000
    O570    O    0.86703   0.63553   0.32698   1.000
    O571    O    0.82079   0.58680   0.32707   1.000
    O572    O    0.36702   0.86448   0.32698   1.000
    O573    O    0.32078   0.91322   0.32704   1.000
    O574    O    0.50224   0.12634   0.32728   1.000
    O575    O    0.44305   0.16084   0.32728   1.000
    O576    O    0.00224   0.37368   0.32728   1.000
    O577    O    0.94307   0.33919   0.32728   1.000
    O578    O    0.44097   0.07197   0.32778   1.000
    O579    O    0.94097   0.42805   0.32779   1.000
    O580    O    0.38178   0.10647   0.32778   1.000
    O581    O    0.88180   0.39356   0.32779   1.000
    O582    O    0.42777   0.81167   0.32784   1.000
    O583    O    0.34185   0.80274   0.32849   1.000
    O584    O    0.92778   0.68834   0.32784   1.000
    O585    O    0.84186   0.69728   0.32849   1.000
    O586    O    0.20245   0.93945   0.33019   1.000
    O587    O    0.70247   0.56056   0.33021   1.000
    O588    O    0.96153   0.74503   0.32894   1.000
    O589    O    0.46152   0.75497   0.32890   1.000
    O590    O    0.36487   0.04272   0.38455   1.000
    O591    O    0.86488   0.45730   0.38456   1.000
    O592    O    0.27399   0.78270   0.32969   1.000
    O593    O    0.32911   0.74539   0.32985   1.000
    O594    O    0.77400   0.71733   0.32969   1.000
    O595    O    0.82912   0.75463   0.32985   1.000
    O596    O    0.39489   0.71380   0.33009   1.000
    O597    O    0.47235   0.68546   0.33049   1.000
    O598    O    0.89490   0.78621   0.33014   1.000
    O599    O    0.97235   0.81454   0.33054   1.000
    O600    O    0.82898   0.80982   0.33092   1.000
    O601    O    0.32897   0.69021   0.33092   1.000
    O602    O    0.48633   0.62697   0.33082   1.000
    O603    O    0.54642   0.57195   0.33151   1.000
    O604    O    0.98632   0.87303   0.33082   1.000
    O605    O    0.04641   0.92805   0.33152   1.000
    O606    O    0.04554   0.83851   0.33212   1.000
    O607    O    0.54556   0.66149   0.33212   1.000
    O608    O    0.60565   0.60647   0.33282   1.000
    O609    O    0.62902   0.54124   0.38922   1.000
    O610    O    0.10563   0.89352   0.33282   1.000
    O611    O    0.12899   0.95874   0.38919   1.000
    O612    O    0.87910   0.99312   0.34371   1.000
    O613    O    0.37910   0.50690   0.34371   1.000
    O614    O    0.61025   0.00509   0.34718   1.000
    O615    O    0.11023   0.49491   0.34718   1.000
    O616    O    0.36255   0.48013   0.38358   1.000
    O617    O    0.86255   0.01990   0.38358   1.000
    O618    O    0.12813   0.52190   0.38850   1.000
    O619    O    0.62815   0.97809   0.38851   1.000
    O620    O    0.85000   0.05496   0.43204   1.000
    O621    O    0.87482   0.99782   0.43773   1.000
    O622    O    0.34998   0.44507   0.43205   1.000
    O623    O    0.37482   0.50221   0.43773   1.000
    O624    O    0.82806   0.10673   0.43226   1.000
    O625    O    0.32804   0.39331   0.43227   1.000
    O626    O    0.14195   0.55731   0.43799   1.000
    O627    O    0.11872   0.49985   0.44171   1.000
    O628    O    0.64196   0.94268   0.43800   1.000
    O629    O    0.61873   0.00015   0.44171   1.000
    O630    O    0.66265   0.89062   0.43992   1.000
    O631    O    0.16265   0.60936   0.43991   1.000
    O632    O    0.39774   0.55288   0.44786   1.000
    O633    O    0.89774   0.94714   0.44790   1.000
    O634    O    0.09734   0.44894   0.45003   1.000
    O635    O    0.59736   0.05106   0.45003   1.000
    O636    O    0.39999   0.96000   0.45624   1.000
    O637    O    0.90001   0.54002   0.45625   1.000
    O638    O    0.37881   0.00946   0.45639   1.000
    O639    O    0.35639   0.06453   0.45980   1.000
    O640    O    0.87882   0.49057   0.45640   1.000
    O641    O    0.85639   0.43551   0.45981   1.000
    O642    O    0.60069   0.45803   0.45833   1.000
    O643    O    0.10067   0.04196   0.45833   1.000
    O644    O    0.12289   0.99273   0.46024   1.000
    O645    O    0.14676   0.93795   0.46556   1.000
    O646    O    0.62291   0.50724   0.46027   1.000
    O647    O    0.64679   0.56202   0.46558   1.000
    O648    O    0.83953   0.08654   0.48077   1.000
    O649    O    0.33951   0.41350   0.48082   1.000
    O650    O    0.83666   0.38629   0.46553   1.000
    O651    O    0.33667   0.11374   0.46555   1.000
    O652    O    0.15410   0.58911   0.48764   1.000
    O653    O    0.65409   0.91087   0.48765   1.000
    O654    O    0.88823   0.97461   0.49181   1.000
    O655    O    0.38822   0.52541   0.49181   1.000
    O656    O    0.66791   0.61100   0.47306   1.000
    O657    O    0.16787   0.88897   0.47308   1.000
    O658    O    0.10843   0.47659   0.49477   1.000
    O659    O    0.60845   0.02340   0.49477   1.000
    O660    O    0.39159   0.97660   0.50523   1.000
    O661    O    0.89161   0.52342   0.50523   1.000
    O662    O    0.61182   0.47459   0.50818   1.000
    O663    O    0.11181   0.02539   0.50818   1.000
    O664    O    0.34595   0.08914   0.51234   1.000
    O665    O    0.84595   0.41089   0.51235   1.000
    O666    O    0.66054   0.58651   0.51917   1.000
    O667    O    0.16051   0.91346   0.51919   1.000
    O668    O    0.83217   0.11104   0.52688   1.000
    O669    O    0.85328   0.06206   0.53435   1.000
    O670    O    0.33213   0.38901   0.52694   1.000
    O671    O    0.35325   0.43798   0.53441   1.000
    O672    O    0.16339   0.61371   0.53444   1.000
    O673    O    0.14365   0.56450   0.54019   1.000
    O674    O    0.66337   0.88626   0.53445   1.000
    O675    O    0.64365   0.93548   0.54020   1.000
    O676    O    0.37713   0.49276   0.53972   1.000
    O677    O    0.39935   0.54198   0.54167   1.000
    O678    O    0.87715   0.00727   0.53970   1.000
    O679    O    0.89937   0.95805   0.54167   1.000
    O680    O    0.12122   0.50944   0.54359   1.000
    O681    O    0.10003   0.45999   0.54375   1.000
    O682    O    0.62123   0.99055   0.54360   1.000
    O683    O    0.60005   0.04000   0.54373   1.000
    O684    O    0.40268   0.94894   0.54997   1.000
    O685    O    0.38131   0.99986   0.55826   1.000
    O686    O    0.90271   0.55107   0.54997   1.000
    O687    O    0.88133   0.50016   0.55829   1.000
    O688    O    0.60230   0.44713   0.55209   1.000
    O689    O    0.62523   0.49780   0.56227   1.000
    O690    O    0.10230   0.05287   0.55210   1.000
    O691    O    0.12522   0.00219   0.56224   1.000
    O692    O    0.33740   0.10939   0.56008   1.000
    O693    O    0.35809   0.05733   0.56197   1.000
    O694    O    0.83739   0.39064   0.56008   1.000
    O695    O    0.85809   0.44270   0.56200   1.000
    O696    O    0.67201   0.60670   0.56772   1.000
    O697    O    0.65006   0.55494   0.56795   1.000
    O698    O    0.17199   0.89328   0.56774   1.000
    O699    O    0.15005   0.94505   0.56792   1.000
    O700    O    0.87105   0.04127   0.61075   1.000
    O701    O    0.37102   0.45876   0.61078   1.000
    O702    O    0.13516   0.54270   0.61544   1.000
    O703    O    0.63517   0.95728   0.61545   1.000
    O704    O    0.37189   0.02192   0.61146   1.000
    O705    O    0.87191   0.47810   0.61149   1.000
    O706    O    0.13750   0.98011   0.61639   1.000
    O707    O    0.63750   0.51988   0.61642   1.000
    O708    O    0.88981   0.50509   0.65281   1.000
    O709    O    0.86340   0.46020   0.66828   1.000
    O710    O    0.38979   0.99492   0.65256   1.000
    O711    O    0.36339   0.03982   0.66828   1.000
    O712    O    0.12094   0.00689   0.65628   1.000
    O713    O    0.14804   0.96204   0.67414   1.000
    O714    O    0.62094   0.49311   0.65628   1.000
    O715    O    0.64804   0.53795   0.67414   1.000
    O716    O    0.39439   0.39354   0.66718   1.000
    O717    O    0.45448   0.33852   0.66787   1.000
    O718    O    0.89441   0.10648   0.66717   1.000
    O719    O    0.95450   0.16150   0.66787   1.000
    O720    O    0.95363   0.07196   0.66848   1.000
    O721    O    0.79760   0.06056   0.66975   1.000
    O722    O    0.91095   0.99201   0.67193   1.000
    O723    O    0.87580   0.04719   0.72457   1.000
    O724    O    0.45362   0.42806   0.66848   1.000
    O725    O    0.29757   0.43945   0.66978   1.000
    O726    O    0.41093   0.50800   0.67195   1.000
    O727    O    0.37577   0.45284   0.72458   1.000
    O728    O    0.17106   0.19019   0.66905   1.000
    O729    O    0.67107   0.30980   0.66907   1.000
    O730    O    0.51371   0.37303   0.66918   1.000
    O731    O    0.52769   0.31455   0.66946   1.000
    O732    O    0.01372   0.12698   0.66918   1.000
    O733    O    0.02769   0.18546   0.66946   1.000
    O734    O    0.60516   0.28620   0.66986   1.000
    O735    O    0.67093   0.25461   0.67014   1.000
    O736    O    0.10514   0.21379   0.66986   1.000
    O737    O    0.17092   0.24538   0.67015   1.000
    O738    O    0.22604   0.28267   0.67030   1.000
    O739    O    0.72606   0.21730   0.67030   1.000
    O740    O    0.03851   0.25497   0.67105   1.000
    O741    O    0.53853   0.24504   0.67106   1.000
    O742    O    0.15818   0.30273   0.67151   1.000
    O743    O    0.65820   0.19726   0.67151   1.000
    O744    O    0.05907   0.57195   0.67221   1.000
    O745    O    0.11824   0.60644   0.67221   1.000
    O746    O    0.21666   0.56056   0.67355   1.000
    O747    O    0.10364   0.49249   0.67396   1.000
    O748    O    0.14323   0.54555   0.72952   1.000
    O749    O    0.61826   0.89354   0.67222   1.000
    O750    O    0.55907   0.92804   0.67222   1.000
    O751    O    0.71667   0.93946   0.67356   1.000
    O752    O    0.60366   0.00750   0.67396   1.000
    O753    O    0.64324   0.95444   0.72953   1.000
    O754    O    0.57227   0.18834   0.67217   1.000
    O755    O    0.07226   0.31167   0.67217   1.000
    O756    O    0.67927   0.08679   0.67290   1.000
    O757    O    0.17925   0.41321   0.67293   1.000
    O758    O    0.13301   0.36447   0.67302   1.000
    O759    O    0.63303   0.13552   0.67302   1.000
    O760    O    0.55700   0.83917   0.67271   1.000
    O761    O    0.49781   0.87367   0.67271   1.000
    O762    O    0.99780   0.62633   0.67271   1.000
    O763    O    0.05698   0.66082   0.67271   1.000
    O764    O    0.98411   0.68485   0.67354   1.000
    O765    O    0.48411   0.81515   0.67353   1.000
    O766    O    0.60492   0.08046   0.67484   1.000
    O767    O    0.10491   0.41954   0.67484   1.000
    O768    O    0.40689   0.78647   0.67431   1.000
    O769    O    0.47405   0.74564   0.67447   1.000
    O770    O    0.90690   0.71354   0.67434   1.000
    O771    O    0.97406   0.75436   0.67448   1.000
    O772    O    0.84070   0.69028   0.67444   1.000
    O773    O    0.34069   0.80975   0.67441   1.000
    O774    O    0.34151   0.75453   0.67499   1.000
    O775    O    0.84152   0.74549   0.67502   1.000
    O776    O    0.44105   0.68875   0.67535   1.000
    O777    O    0.94106   0.81126   0.67536   1.000
    O778    O    0.33535   0.58651   0.67559   1.000
    O779    O    0.83537   0.91352   0.67560   1.000
    O780    O    0.28682   0.71694   0.67551   1.000
    O781    O    0.35502   0.69723   0.67568   1.000
    O782    O    0.78683   0.78310   0.67552   1.000
    O783    O    0.85503   0.80279   0.67569   1.000
    O784    O    0.38106   0.63560   0.67595   1.000
    O785    O    0.88108   0.86442   0.67596   1.000
    O786    O    0.91005   0.91935   0.67624   1.000
    O787    O    0.41003   0.58067   0.67625   1.000
    O788    O    0.83702   0.40930   0.68467   1.000
    O789    O    0.33701   0.09072   0.68471   1.000
    O790    O    0.67540   0.58879   0.69323   1.000
    O791    O    0.17539   0.91120   0.69325   1.000
    O792    O    0.36051   0.05233   0.72653   1.000
    O793    O    0.86052   0.44769   0.72654   1.000
    O794    O    0.65209   0.55064   0.73267   1.000
    O795    O    0.15208   0.94936   0.73268   1.000
    O796    O    0.36930   0.95461   0.76576   1.000
    O797    O    0.86930   0.54540   0.76576   1.000
    O798    O    0.14708   0.04685   0.77184   1.000
    O799    O    0.64710   0.45315   0.77184   1.000
    O800    O    0.36937   0.00854   0.77238   1.000
    O801    O    0.37061   0.06772   0.78484   1.000
    O802    O    0.86938   0.49147   0.77238   1.000
    O803    O    0.87063   0.43229   0.78484   1.000
    O804    O    0.64483   0.50706   0.77795   1.000
    O805    O    0.64126   0.56629   0.78965   1.000
    O806    O    0.14482   0.99294   0.77796   1.000
    O807    O    0.14125   0.93371   0.78967   1.000
    O808    O    0.85455   0.07263   0.79731   1.000
    O809    O    0.89214   0.02214   0.79975   1.000
    O810    O    0.35452   0.42740   0.79732   1.000
    O811    O    0.39211   0.47788   0.79975   1.000
    O812    O    0.82027   0.11773   0.79762   1.000
    O813    O    0.32024   0.38231   0.79763   1.000
    O814    O    0.87303   0.53191   0.81640   1.000
    O815    O    0.37302   0.96811   0.81640   1.000
    O816    O    0.59271   0.02504   0.80180   1.000
    O817    O    0.09270   0.47496   0.80181   1.000
    O818    O    0.62912   0.98103   0.80240   1.000
    O819    O    0.66946   0.93176   0.80584   1.000
    O820    O    0.12911   0.51896   0.80241   1.000
    O821    O    0.16945   0.56822   0.80583   1.000
    O822    O    0.14195   0.03305   0.82188   1.000
    O823    O    0.64196   0.46695   0.82188   1.000
    O824    O    0.87268   0.38070   0.79922   1.000
    O825    O    0.37265   0.11931   0.79925   1.000
    O826    O    0.42593   0.52295   0.80437   1.000
    O827    O    0.92596   0.97706   0.80437   1.000
    O828    O    0.63730   0.61794   0.80332   1.000
    O829    O    0.13730   0.88207   0.80334   1.000
    O830    O    0.70591   0.88770   0.81153   1.000
    O831    O    0.20590   0.61228   0.81156   1.000
    O832    O    0.37585   0.08643   0.84121   1.000
    O833    O    0.87588   0.41358   0.84125   1.000
    O834    O    0.63437   0.58534   0.84516   1.000
    O835    O    0.13437   0.91467   0.84518   1.000
    O836    O    0.83006   0.09700   0.84632   1.000
    O837    O    0.33004   0.40303   0.84633   1.000
    O838    O    0.60852   0.00851   0.85139   1.000
    O839    O    0.10851   0.49149   0.85140   1.000
    O840    O    0.90635   0.99367   0.85124   1.000
    O841    O    0.40634   0.50634   0.85124   1.000
    O842    O    0.19060   0.59224   0.85838   1.000
    O843    O    0.69063   0.90775   0.85840   1.000
    O844    O    0.87586   0.56483   0.85819   1.000
    O845    O    0.87657   0.51325   0.87286   1.000
    O846    O    0.37585   0.93518   0.85819   1.000
    O847    O    0.37656   0.98676   0.87286   1.000
    O848    O    0.13918   0.06568   0.86358   1.000
    O849    O    0.13632   0.01403   0.87767   1.000
    O850    O    0.63919   0.43433   0.86358   1.000
    O851    O    0.63633   0.48597   0.87767   1.000
    O852    O    0.37815   0.04591   0.88522   1.000
    O853    O    0.38204   0.09985   0.89188   1.000
    O854    O    0.87818   0.45410   0.88525   1.000
    O855    O    0.88208   0.40016   0.89192   1.000
    O856    O    0.63231   0.54514   0.88925   1.000
    O857    O    0.62661   0.59917   0.89472   1.000
    O858    O    0.13231   0.95487   0.88927   1.000
    O859    O    0.12661   0.90084   0.89474   1.000
    O860    O    0.80887   0.11715   0.89112   1.000
    O861    O    0.84357   0.06955   0.89847   1.000
    O862    O    0.30886   0.38288   0.89113   1.000
    O863    O    0.34356   0.43047   0.89848   1.000
    O864    O    0.91710   0.96941   0.89802   1.000
    O865    O    0.88227   0.01672   0.90096   1.000
    O866    O    0.41710   0.53059   0.89802   1.000
    O867    O    0.38226   0.48329   0.90097   1.000
    O868    O    0.59158   0.03174   0.89612   1.000
    O869    O    0.62866   0.98557   0.90455   1.000
    O870    O    0.09156   0.46827   0.89612   1.000
    O871    O    0.12863   0.51444   0.90455   1.000
    O872    O    0.20883   0.61204   0.90620   1.000
    O873    O    0.17038   0.56593   0.90811   1.000
    O874    O    0.70887   0.88796   0.90621   1.000
    O875    O    0.67042   0.93407   0.90811   1.000
    O876    O    0.37986   0.00285   0.93127   1.000
    O877    O    0.87989   0.49716   0.93127   1.000
    O878    O    0.63005   0.50226   0.93532   1.000
    O879    O    0.13004   0.99775   0.93533   1.000
    O880    O    0.85702   0.04283   0.95087   1.000
    O881    O    0.35702   0.45718   0.95088   1.000
    O882    O    0.14985   0.54041   0.95804   1.000
    O883    O    0.64989   0.95960   0.95804   1.000
    O884    O    0.89619   0.53434   0.97625   1.000
    O885    O    0.39617   0.96567   0.97625   1.000
    O886    O    0.61605   0.46414   0.97827   1.000
    O887    O    0.11603   0.03587   0.97828   1.000
loop_
    _geom_bond_atom_site_label_1
    _geom_bond_atom_site_label_2
    _geom_bond_distance
    _geom_bond_site_symmetry_2
    _ccdc_geom_bond_type
    C105   O416      0.50911  1_554   S
    C362   O416      0.50911      .   S
    C9     O417      0.50917  1_554   S
    C338   O417      0.50917      .   S
    C350   O418      0.69817      .   S
    C217   O418      0.69817      .   S
    C350   O419      0.69582  1_554   S
    C203   O419      0.69582  1_565   S
    C350   O420      0.50927  1_554   S
    C43    O420      0.50927      .   S
    C358   O421      0.69807      .   S
    C265   O421      0.69807      .   S
    C358   O422      0.69591  1_554   S
    C251   O422      0.69591      .   S
    C358   O423      0.50922  1_554   S
    C75    O423      0.50922      .   S
    C369   O424      0.61706      .   S
    C137   O424      0.61706      .   S
    C405   O425      0.61704      .   S
    C281   O425      0.61704      .   S
    C371   O426      0.61672      .   S
    C155   O426      0.61672      .   S
    C407   O427      0.61670      .   S
    C299   O427      0.61670      .   S
    C11    O428      0.50922      .   S
    C342   O428      0.50922  1_556   S
    C107   O429      0.50926      .   S
    C366   O429      0.50926  1_556   S
    C354   O430      0.69808      .   S
    C247   O430      0.69808      .   S
    C354   O431      0.69559  1_554   S
    C233   O431      0.69559      .   S
    C354   O432      0.50918      .   S
    C73    O432      0.50918  1_556   S
    C346   O433      0.69809      .   S
    C199   O433      0.69809      .   S
    C346   O434      0.69562  1_554   S
    C185   O434      0.69562  1_545   S
    C346   O435      0.50911      .   S
    C41    O435      0.50911  1_556   S
    C281   O436      0.74689  1_565   S
    C285   O436      0.74689      .   S
    C281   O437      0.69562  1_565   S
    C362   O437      0.69562  1_556   S
    C137   O438      0.74688      .   S
    C141   O438      0.74688      .   S
    C137   O439      0.69559      .   S
    C338   O439      0.69559  1_556   S
    C155   O440      0.74706      .   S
    C159   O440      0.74706      .   S
    C155   O441      0.69591      .   S
    C342   O441      0.69591  1_556   S
    C299   O442      0.74704  1_545   S
    C303   O442      0.74704      .   S
    C299   O443      0.69582  1_545   S
    C366   O443      0.69582  1_556   S
    C265   O444      0.70353      .   S
    C264   O444      0.70353      .   S
    C265   O445      0.70157      .   S
    C266   O445      0.70157      .   S
    C217   O446      0.70352      .   S
    C216   O446      0.70352      .   S
    C217   O447      0.70159      .   S
    C218   O447      0.70159  1_565   S
    C65    O448      0.54526      .   S
    C216   O448      0.54526      .   S
    C97    O449      0.54524      .   S
    C264   O449      0.54524      .   S
    C247   O450      0.70141      .   S
    C246   O450      0.70141      .   S
    C247   O451      0.70322      .   S
    C248   O451      0.70322      .   S
    C199   O452      0.70143      .   S
    C198   O452      0.70143  1_545   S
    C199   O453      0.70322      .   S
    C200   O453      0.70322      .   S
    C85    O454      0.54225      .   S
    C246   O454      0.54225      .   S
    C110   O455      0.54564      .   S
    C286   O455      0.54564      .   S
    C14    O456      0.54566      .   S
    C142   O456      0.54566      .   S
    C53    O457      0.54190      .   S
    C198   O457      0.54190      .   S
    C121   O458      0.54561      .   S
    C302   O458      0.54561      .   S
    C25    O459      0.54566      .   S
    C158   O459      0.54566      .   S
    C98    O460      0.54161      .   S
    C266   O460      0.54161      .   S
    C66    O461      0.54163      .   S
    C218   O461      0.54163      .   S
    C86    O462      0.54538      .   S
    C248   O462      0.54538      .   S
    C54    O463      0.54534      .   S
    C200   O463      0.54534      .   S
    C285   O464      0.70298      .   S
    C286   O464      0.70298      .   S
    C285   O465      0.70136  1_545   S
    C284   O465      0.70136      .   S
    C141   O466      0.70299      .   S
    C142   O466      0.70299      .   S
    C141   O467      0.70136      .   S
    C140   O467      0.70136      .   S
    C303   O468      0.70269      .   S
    C302   O468      0.70269      .   S
    C303   O469      0.70089  1_565   S
    C304   O469      0.70089      .   S
    C159   O470      0.70283      .   S
    C158   O470      0.70283      .   S
    C159   O471      0.70089      .   S
    C160   O471      0.70089      .   S
    C216   O472      0.69344      .   S
    C215   O472      0.69344      .   S
    C264   O473      0.69344      .   S
    C263   O473      0.69344      .   S
    C266   O474      0.69382      .   S
    C267   O474      0.69382      .   S
    C218   O475      0.69372      .   S
    C219   O475      0.69372      .   S
    C246   O476      0.69371      .   S
    C245   O476      0.69371      .   S
    C198   O477      0.69362      .   S
    C197   O477      0.69362      .   S
    C248   O478      0.69304      .   S
    C249   O478      0.69304      .   S
    C200   O479      0.69305      .   S
    C201   O479      0.69305      .   S
    C286   O480      0.69470      .   S
    C287   O480      0.69470      .   S
    C142   O481      0.69469      .   S
    C143   O481      0.69469      .   S
    C302   O482      0.69521      .   S
    C301   O482      0.69521      .   S
    C158   O483      0.69472      .   S
    C157   O483      0.69472      .   S
    C13    O484      0.54447      .   S
    C140   O484      0.54447      .   S
    C109   O485      0.54446      .   S
    C284   O485      0.54446      .   S
    C26    O486      0.54443      .   S
    C160   O486      0.54443      .   S
    C122   O487      0.54442      .   S
    C304   O487      0.54442      .   S
    C140   O488      0.69582      .   S
    C139   O488      0.69582      .   S
    C284   O489      0.69583      .   S
    C283   O489      0.69583      .   S
    C160   O490      0.69607      .   S
    C161   O490      0.69607      .   S
    C304   O491      0.69607      .   S
    C305   O491      0.69607      .   S
    C215   O492      0.54528      .   S
    C64    O492      0.54528      .   S
    C215   O493      0.67460      .   S
    C351   O493      0.67460      .   S
    C263   O494      0.54525      .   S
    C96    O494      0.54525      .   S
    C263   O495      0.67457      .   S
    C359   O495      0.67457      .   S
    C197   O496      0.54492      .   S
    C52    O496      0.54492      .   S
    C197   O497      0.67340  1_545   S
    C347   O497      0.67340      .   S
    C245   O498      0.54491      .   S
    C84    O498      0.54491      .   S
    C245   O499      0.67336      .   S
    C355   O499      0.67336      .   S
    C267   O500      0.67414      .   S
    C359   O500      0.67414      .   S
    C267   O501      0.54481      .   S
    C99    O501      0.54481      .   S
    C219   O502      0.67417  1_565   S
    C351   O502      0.67417      .   S
    C219   O503      0.54485      .   S
    C67    O503      0.54485      .   S
    C249   O504      0.54506      .   S
    C87    O504      0.54506      .   S
    C249   O505      0.67427      .   S
    C355   O505      0.67427      .   S
    C201   O506      0.54506      .   S
    C55    O506      0.54506      .   S
    C201   O507      0.67429      .   S
    C347   O507      0.67429      .   S
    C287   O508      0.54449      .   S
    C111   O508      0.54449      .   S
    C287   O509      0.70187      .   S
    C282   O509      0.70187      .   S
    C143   O510      0.54448      .   S
    C15    O510      0.54448      .   S
    C143   O511      0.70184      .   S
    C138   O511      0.70184      .   S
    C157   O512      0.54452      .   S
    C24    O512      0.54452      .   S
    C157   O513      0.70227      .   S
    C156   O513      0.70227      .   S
    C301   O514      0.54455      .   S
    C120   O514      0.54455      .   S
    C301   O515      0.70221      .   S
    C300   O515      0.70221      .   S
    C283   O516      0.70099  1_565   S
    C282   O516      0.70099      .   S
    C283   O517      0.54431      .   S
    C108   O517      0.54431      .   S
    C139   O518      0.70102      .   S
    C138   O518      0.70102      .   S
    C139   O519      0.54434      .   S
    C12    O519      0.54434      .   S
    C359   O520      1.17887      .   S
    C5     O520      1.17887      .   S
    C351   O521      1.17877      .   S
    C3     O521      1.17877      .   S
    C161   O522      0.70119      .   S
    C156   O522      0.70119      .   S
    C161   O523      0.54431      .   S
    C27    O523      0.54431      .   S
    C305   O524      0.70116  1_545   S
    C300   O524      0.70116      .   S
    C305   O525      0.54431      .   S
    C123   O525      0.54431      .   S
    C355   O526      1.17421      .   S
    C4     O526      1.17421      .   S
    C347   O527      1.17421      .   S
    C2     O527      1.17421      .   S
    C282   O528      0.75057      .   S
    C280   O528      0.75057      .   S
    C138   O529      0.75054      .   S
    C136   O529      0.75054      .   S
    C156   O530      0.75051      .   S
    C154   O530      0.75051      .   S
    C300   O531      0.75060      .   S
    C298   O531      0.75060      .   S
    C280   O532      0.61809      .   S
    C404   O532      0.61809      .   S
    C280   O533      0.68788      .   S
    C360   O533      0.68788      .   S
    C136   O534      0.61810      .   S
    C368   O534      0.61810      .   S
    C136   O535      0.68787      .   S
    C336   O535      0.68787      .   S
    C154   O536      0.61830      .   S
    C370   O536      0.61830      .   S
    C154   O537      0.68749      .   S
    C340   O537      0.68749      .   S
    C298   O538      0.61828      .   S
    C406   O538      0.61828      .   S
    C298   O539      0.68742      .   S
    C364   O539      0.68742      .   S
    C401   O540      0.64069      .   S
    C268   O540      0.64069      .   S
    C401   O541      1.20374      .   S
    C4     O541      1.20374      .   S
    C389   O542      0.64070      .   S
    C220   O542      0.64070      .   S
    C389   O543      1.20374      .   S
    C2     O543      1.20374  1_565   S
    C268   O544      0.73948      .   S
    C270   O544      0.73948      .   S
    C268   O545      0.63740      .   S
    C400   O545      0.63740      .   S
    C220   O546      0.73948      .   S
    C222   O546      0.73948      .   S
    C220   O547      0.63740      .   S
    C388   O547      0.63740      .   S
    C397   O548      0.64082      .   S
    C274   O548      0.64082      .   S
    C397   O549      1.20257      .   S
    C5     O549      1.20257      .   S
    C385   O550      0.64083      .   S
    C226   O550      0.64083      .   S
    C385   O551      1.20254      .   S
    C3     O551      1.20254  1_545   S
    C222   O552      0.69437      .   S
    C223   O552      0.69437      .   S
    C222   O553      0.86677      .   S
    C331   O553      0.86677      .   S
    C270   O554      0.69438      .   S
    C271   O554      0.69438      .   S
    C270   O555      0.86676      .   S
    C333   O555      0.86676      .   S
    C68    O556      0.54491      .   S
    C223   O556      0.54491      .   S
    C100   O557      0.54491      .   S
    C271   O557      0.54491      .   S
    C223   O558      0.70591      .   S
    C224   O558      0.70591      .   S
    C271   O559      0.70589      .   S
    C272   O559      0.70589      .   S
    C388   O560      1.21235      .   S
    C3     O560      1.21235      .   S
    C400   O561      1.21244      .   S
    C5     O561      1.21244      .   S
    C331   O562      0.86472      .   S
    C225   O562      0.86472      .   S
    C333   O563      0.86473      .   S
    C273   O563      0.86473      .   S
    C272   O564      0.54340      .   S
    C101   O564      0.54340      .   S
    C272   O565      0.69449      .   S
    C273   O565      0.69449      .   S
    C224   O566      0.54341      .   S
    C69    O566      0.54341      .   S
    C224   O567      0.69449      .   S
    C225   O567      0.69449      .   S
    C273   O568      0.74135      .   S
    C275   O568      0.74135      .   S
    C225   O569      0.74120      .   S
    C227   O569      0.74120  1_655   S
    C274   O570      0.73956      .   S
    C276   O570      0.73956      .   S
    C274   O571      0.63692      .   S
    C396   O571      0.63692      .   S
    C226   O572      0.73956      .   S
    C228   O572      0.73956      .   S
    C226   O573      0.63686      .   S
    C384   O573      0.63686      .   S
    C275   O574      0.64082      .   S
    C403   O574      0.64082      .   S
    C275   O575      0.63785      .   S
    C402   O575      0.63785      .   S
    C227   O576      0.64071  1_655   S
    C391   O576      0.64071      .   S
    C227   O577      0.63786      .   S
    C390   O577      0.63786      .   S
    C403   O578      1.27088      .   S
    C3     O578      1.27088      .   S
    C391   O579      1.27068  1_455   S
    C5     O579      1.27068      .   S
    C402   O580      1.22229      .   S
    C3     O580      1.22229      .   S
    C390   O581      1.22215      .   S
    C5     O581      1.22215      .   S
    C228   O582      0.86674      .   S
    C330   O582      0.86674      .   S
    C228   O583      0.69436      .   S
    C229   O583      0.69436      .   S
    C276   O584      0.86677      .   S
    C332   O584      0.86677      .   S
    C276   O585      0.69436      .   S
    C277   O585      0.69436      .   S
    C384   O586      1.21638      .   S
    C2     O586      1.21638      .   S
    C396   O587      1.21641      .   S
    C4     O587      1.21641      .   S
    C332   O588      0.86490      .   S
    C279   O588      0.86490      .   S
    C330   O589      0.86484      .   S
    C231   O589      0.86484      .   S
    C3     O590      1.16083      .   S
    C349   O590      1.16083      .   S
    C5     O591      1.16084      .   S
    C357   O591      1.16084      .   S
    C229   O592      0.54493      .   S
    C70    O592      0.54493      .   S
    C229   O593      0.70577      .   S
    C230   O593      0.70577      .   S
    C277   O594      0.54493      .   S
    C102   O594      0.54493      .   S
    C277   O595      0.70578      .   S
    C278   O595      0.70578      .   S
    C231   O596      0.69440      .   S
    C230   O596      0.69440      .   S
    C231   O597      0.74097      .   S
    C221   O597      0.74097      .   S
    C279   O598      0.69432      .   S
    C278   O598      0.69432      .   S
    C279   O599      0.74086      .   S
    C269   O599      0.74086  1_455   S
    C278   O600      0.54331      .   S
    C103   O600      0.54331      .   S
    C230   O601      0.54331      .   S
    C71    O601      0.54331      .   S
    C387   O602      0.64183      .   S
    C221   O602      0.64183      .   S
    C387   O603      1.25751      .   S
    C4     O603      1.25751      .   S
    C399   O604      0.64173      .   S
    C269   O604      0.64173  1_455   S
    C399   O605      1.25734  1_655   S
    C2     O605      1.25734      .   S
    C269   O606      0.63707      .   S
    C398   O606      0.63707      .   S
    C221   O607      0.63708      .   S
    C386   O607      0.63708      .   S
    C4     O608      1.22989      .   S
    C386   O608      1.22989      .   S
    C4     O609      1.16380      .   S
    C353   O609      1.16380      .   S
    C2     O610      1.22994      .   S
    C398   O610      1.22994      .   S
    C2     O611      1.16308      .   S
    C345   O611      1.16308      .   S
    C104   O612      0.51797      .   S
    C360   O612      0.51797  1_545   S
    C8     O613      0.51794      .   S
    C336   O613      0.51794      .   S
    C106   O614      0.51751      .   S
    C364   O614      0.51751  1_565   S
    C10    O615      0.51751      .   S
    C340   O615      0.51751      .   S
    C336   O616      0.69666      .   S
    C146   O616      0.69666      .   S
    C360   O617      0.69667      .   S
    C290   O617      0.69667      .   S
    C340   O618      0.69628      .   S
    C164   O618      0.69628      .   S
    C364   O619      0.69638      .   S
    C308   O619      0.69638      .   S
    C290   O620      0.70421      .   S
    C291   O620      0.70421      .   S
    C290   O621      0.70389  1_545   S
    C289   O621      0.70389      .   S
    C146   O622      0.70421      .   S
    C147   O622      0.70421      .   S
    C146   O623      0.70394      .   S
    C145   O623      0.70394      .   S
    C114   O624      0.54215      .   S
    C291   O624      0.54215      .   S
    C18    O625      0.54213      .   S
    C147   O625      0.54213      .   S
    C164   O626      0.70427      .   S
    C163   O626      0.70427      .   S
    C164   O627      0.70354      .   S
    C165   O627      0.70354      .   S
    C308   O628      0.70426      .   S
    C307   O628      0.70426      .   S
    C308   O629      0.70349  1_565   S
    C309   O629      0.70349      .   S
    C125   O630      0.54207      .   S
    C307   O630      0.54207      .   S
    C29    O631      0.54200      .   S
    C163   O631      0.54200      .   S
    C17    O632      0.54473      .   S
    C145   O632      0.54473      .   S
    C113   O633      0.54441      .   S
    C289   O633      0.54441      .   S
    C30    O634      0.54433      .   S
    C165   O634      0.54433      .   S
    C126   O635      0.54432      .   S
    C309   O635      0.54432      .   S
    C63    O636      0.54378      .   S
    C214   O636      0.54378      .   S
    C95    O637      0.54384      .   S
    C262   O637      0.54384      .   S
    C349   O638      0.67583      .   S
    C214   O638      0.67583  1_565   S
    C349   O639      0.67475      .   S
    C210   O639      0.67475      .   S
    C357   O640      0.67584      .   S
    C262   O640      0.67584      .   S
    C357   O641      0.67474      .   S
    C258   O641      0.67474      .   S
    C80    O642      0.54422      .   S
    C240   O642      0.54422      .   S
    C48    O643      0.54419      .   S
    C192   O643      0.54419      .   S
    C345   O644      0.67658      .   S
    C192   O644      0.67658  1_545   S
    C345   O645      0.67547      .   S
    C196   O645      0.67547      .   S
    C353   O646      0.67629      .   S
    C240   O646      0.67629      .   S
    C353   O647      0.67502      .   S
    C244   O647      0.67502      .   S
    C291   O648      0.69356      .   S
    C292   O648      0.69356      .   S
    C147   O649      0.69438      .   S
    C148   O649      0.69438      .   S
    C92    O650      0.54566      .   S
    C258   O650      0.54566      .   S
    C60    O651      0.54536      .   S
    C210   O651      0.54536      .   S
    C163   O652      0.69403      .   S
    C162   O652      0.69403      .   S
    C307   O653      0.69403      .   S
    C306   O653      0.69403      .   S
    C289   O654      0.69121      .   S
    C288   O654      0.69121      .   S
    C145   O655      0.69120      .   S
    C144   O655      0.69120      .   S
    C83    O656      0.54536      .   S
    C244   O656      0.54536      .   S
    C51    O657      0.54537      .   S
    C196   O657      0.54537      .   S
    C165   O658      0.69069      .   S
    C166   O658      0.69069      .   S
    C309   O659      0.69079      .   S
    C310   O659      0.69079      .   S
    C214   O660      0.69079      .   S
    C213   O660      0.69079      .   S
    C262   O661      0.69069      .   S
    C261   O661      0.69069      .   S
    C240   O662      0.69120      .   S
    C241   O662      0.69120      .   S
    C192   O663      0.69121      .   S
    C193   O663      0.69121      .   S
    C210   O664      0.69403      .   S
    C211   O664      0.69403      .   S
    C258   O665      0.69403      .   S
    C259   O665      0.69403      .   S
    C244   O666      0.69438      .   S
    C243   O666      0.69438      .   S
    C196   O667      0.69428      .   S
    C195   O667      0.69428      .   S
    C292   O668      0.54572      .   S
    C115   O668      0.54572      .   S
    C292   O669      0.67530      .   S
    C361   O669      0.67530      .   S
    C148   O670      0.54535      .   S
    C19    O670      0.54535      .   S
    C148   O671      0.67503      .   S
    C337   O671      0.67503      .   S
    C162   O672      0.54542      .   S
    C28    O672      0.54542      .   S
    C162   O673      0.67474      .   S
    C341   O673      0.67474      .   S
    C306   O674      0.54537      .   S
    C124   O674      0.54537      .   S
    C306   O675      0.67474      .   S
    C365   O675      0.67474      .   S
    C144   O676      0.67629      .   S
    C337   O676      0.67629      .   S
    C144   O677      0.54422      .   S
    C16    O677      0.54422      .   S
    C288   O678      0.67611  1_565   S
    C361   O678      0.67611      .   S
    C288   O679      0.54419      .   S
    C112   O679      0.54419      .   S
    C166   O680      0.67584      .   S
    C341   O680      0.67584      .   S
    C166   O681      0.54384      .   S
    C31    O681      0.54384      .   S
    C310   O682      0.67583  1_545   S
    C365   O682      0.67583      .   S
    C310   O683      0.54347      .   S
    C127   O683      0.54347      .   S
    C213   O684      0.54432      .   S
    C62    O684      0.54432      .   S
    C213   O685      0.70318      .   S
    C212   O685      0.70318  1_545   S
    C261   O686      0.54433      .   S
    C94    O686      0.54433      .   S
    C261   O687      0.70354      .   S
    C260   O687      0.70354      .   S
    C241   O688      0.54431      .   S
    C81    O688      0.54431      .   S
    C241   O689      0.70394      .   S
    C242   O689      0.70394      .   S
    C193   O690      0.54441      .   S
    C49    O690      0.54441      .   S
    C193   O691      0.70354      .   S
    C194   O691      0.70354  1_565   S
    C211   O692      0.54207      .   S
    C61    O692      0.54207      .   S
    C211   O693      0.70404      .   S
    C212   O693      0.70404      .   S
    C259   O694      0.54200      .   S
    C93    O694      0.54200      .   S
    C259   O695      0.70428      .   S
    C260   O695      0.70428      .   S
    C243   O696      0.54212      .   S
    C82    O696      0.54212      .   S
    C243   O697      0.70422      .   S
    C242   O697      0.70422      .   S
    C195   O698      0.54216      .   S
    C50    O698      0.54216      .   S
    C195   O699      0.70393      .   S
    C194   O699      0.70393      .   S
    C361   O700      1.16410      .   S
    C6     O700      1.16410      .   S
    C337   O701      1.16380      .   S
    C0     O701      1.16380      .   S
    C341   O702      1.16084      .   S
    C1     O702      1.16084      .   S
    C365   O703      1.16083      .   S
    C7     O703      1.16083      .   S
    C212   O704      0.69689      .   S
    C348   O704      0.69689      .   S
    C260   O705      0.69628      .   S
    C356   O705      0.69628      .   S
    C194   O706      0.69729      .   S
    C344   O706      0.69729      .   S
    C242   O707      0.69666      .   S
    C352   O707      0.69666      .   S
    C356   O708      0.51751      .   S
    C74    O708      0.51751      .   S
    C356   O709      0.68749      .   S
    C250   O709      0.68749      .   S
    C348   O710      0.51615  1_545   S
    C42    O710      0.51615      .   S
    C348   O711      0.68742      .   S
    C202   O711      0.68742      .   S
    C344   O712      0.51797  1_565   S
    C40    O712      0.51797      .   S
    C344   O713      0.68789      .   S
    C184   O713      0.68789      .   S
    C352   O714      0.51794      .   S
    C72    O714      0.51794      .   S
    C352   O715      0.68787      .   S
    C232   O715      0.68787      .   S
    C410   O716      1.22988      .   S
    C0     O716      1.22988      .   S
    C410   O717      0.63708      .   S
    C317   O717      0.63708      .   S
    C374   O718      1.22993      .   S
    C6     O718      1.22993      .   S
    C374   O719      0.63707      .   S
    C173   O719      0.63707      .   S
    C6     O720      1.25734      .   S
    C375   O720      1.25734  1_455   S
    C6     O721      1.21628      .   S
    C408   O721      1.21628      .   S
    C6     O722      1.20374  1_545   S
    C413   O722      1.20374      .   S
    C6     O723      1.17421      .   S
    C363   O723      1.17421      .   S
    C0     O724      1.25751      .   S
    C411   O724      1.25751      .   S
    C0     O725      1.21641      .   S
    C372   O725      1.21641      .   S
    C0     O726      1.20372      .   S
    C377   O726      1.20372      .   S
    C0     O727      1.17421      .   S
    C339   O727      1.17421      .   S
    C39    O728      0.54334      .   S
    C182   O728      0.54334      .   S
    C135   O729      0.54330      .   S
    C326   O729      0.54330      .   S
    C317   O730      0.64182      .   S
    C411   O730      0.64182      .   S
    C317   O731      0.74100      .   S
    C327   O731      0.74100      .   S
    C173   O732      0.64174  1_655   S
    C375   O732      0.64174      .   S
    C173   O733      0.74086  1_655   S
    C183   O733      0.74086      .   S
    C326   O734      0.69434      .   S
    C327   O734      0.69434      .   S
    C326   O735      0.70577      .   S
    C325   O735      0.70577      .   S
    C182   O736      0.69432      .   S
    C183   O736      0.69432      .   S
    C182   O737      0.70577      .   S
    C181   O737      0.70577      .   S
    C38    O738      0.54493      .   S
    C181   O738      0.54493      .   S
    C134   O739      0.54493      .   S
    C325   O739      0.54493      .   S
    C183   O740      0.86490      .   S
    C328   O740      0.86490      .   S
    C327   O741      0.86488      .   S
    C334   O741      0.86488      .   S
    C181   O742      0.69436      .   S
    C180   O742      0.69436      .   S
    C325   O743      0.69436      .   S
    C324   O743      0.69436      .   S
    C1     O744      1.27068      .   S
    C415   O744      1.27068  1_655   S
    C1     O745      1.22215      .   S
    C414   O745      1.22215      .   S
    C1     O746      1.21244      .   S
    C376   O746      1.21244      .   S
    C1     O747      1.20257      .   S
    C373   O747      1.20257      .   S
    C1     O748      1.17887      .   S
    C343   O748      1.17887      .   S
    C7     O749      1.22229      .   S
    C378   O749      1.22229      .   S
    C7     O750      1.27088      .   S
    C379   O750      1.27088      .   S
    C7     O751      1.21234      .   S
    C412   O751      1.21234      .   S
    C7     O752      1.20254  1_565   S
    C409   O752      1.20254      .   S
    C7     O753      1.17877      .   S
    C367   O753      1.17877      .   S
    C334   O754      0.86674      .   S
    C324   O754      0.86674      .   S
    C328   O755      0.86677      .   S
    C180   O755      0.86677      .   S
    C408   O756      0.63696      .   S
    C322   O756      0.63696      .   S
    C372   O757      0.63692      .   S
    C178   O757      0.63692      .   S
    C180   O758      0.73956      .   S
    C178   O758      0.73956      .   S
    C324   O759      0.73955      .   S
    C322   O759      0.73955      .   S
    C378   O760      0.63785      .   S
    C179   O760      0.63785      .   S
    C379   O761      0.64082      .   S
    C179   O761      0.64082      .   S
    C415   O762      0.64071      .   S
    C323   O762      0.64071  1_455   S
    C414   O763      0.63785      .   S
    C323   O763      0.63785      .   S
    C323   O764      0.74121  1_455   S
    C321   O764      0.74121      .   S
    C179   O765      0.74135      .   S
    C177   O765      0.74135      .   S
    C322   O766      0.64083      .   S
    C409   O766      0.64083      .   S
    C178   O767      0.64081      .   S
    C373   O767      0.64081      .   S
    C177   O768      0.69444      .   S
    C176   O768      0.69444      .   S
    C177   O769      0.86473      .   S
    C329   O769      0.86473      .   S
    C321   O770      0.69448      .   S
    C320   O770      0.69448      .   S
    C321   O771      0.86472      .   S
    C335   O771      0.86472      .   S
    C133   O772      0.54341      .   S
    C320   O772      0.54341      .   S
    C37    O773      0.54343      .   S
    C176   O773      0.54343      .   S
    C176   O774      0.70592      .   S
    C175   O774      0.70592      .   S
    C320   O775      0.70590      .   S
    C319   O775      0.70590      .   S
    C329   O776      0.86675      .   S
    C174   O776      0.86675      .   S
    C335   O777      0.86676      .   S
    C318   O777      0.86676      .   S
    C376   O778      0.63741      .   S
    C172   O778      0.63741      .   S
    C412   O779      0.63741      .   S
    C316   O779      0.63741      .   S
    C175   O780      0.54491      .   S
    C36    O780      0.54491      .   S
    C175   O781      0.69438      .   S
    C174   O781      0.69438      .   S
    C319   O782      0.54491      .   S
    C132   O782      0.54491      .   S
    C319   O783      0.69439      .   S
    C318   O783      0.69439      .   S
    C174   O784      0.73948      .   S
    C172   O784      0.73948      .   S
    C318   O785      0.73947      .   S
    C316   O785      0.73947      .   S
    C316   O786      0.64070      .   S
    C413   O786      0.64070      .   S
    C172   O787      0.64070      .   S
    C377   O787      0.64070      .   S
    C394   O788      0.61846      .   S
    C250   O788      0.61846      .   S
    C382   O789      0.61828      .   S
    C202   O789      0.61828      .   S
    C392   O790      0.61809      .   S
    C232   O790      0.61809      .   S
    C380   O791      0.61809      .   S
    C184   O791      0.61809      .   S
    C202   O792      0.75060      .   S
    C204   O792      0.75060      .   S
    C250   O793      0.75051      .   S
    C252   O793      0.75051      .   S
    C232   O794      0.75054      .   S
    C234   O794      0.75054      .   S
    C184   O795      0.75057      .   S
    C186   O795      0.75057      .   S
    C59    O796      0.54432      .   S
    C209   O796      0.54432      .   S
    C91    O797      0.54431      .   S
    C257   O797      0.54431      .   S
    C44    O798      0.54431      .   S
    C187   O798      0.54431      .   S
    C76    O799      0.54434      .   S
    C235   O799      0.54434      .   S
    C204   O800      0.70116      .   S
    C209   O800      0.70116  1_565   S
    C204   O801      0.70221      .   S
    C205   O801      0.70221      .   S
    C252   O802      0.70119      .   S
    C257   O802      0.70119      .   S
    C252   O803      0.70227      .   S
    C253   O803      0.70227      .   S
    C234   O804      0.70101      .   S
    C235   O804      0.70101      .   S
    C234   O805      0.70185      .   S
    C239   O805      0.70185      .   S
    C186   O806      0.70098      .   S
    C187   O806      0.70098  1_545   S
    C186   O807      0.70188      .   S
    C191   O807      0.70188      .   S
    C363   O808      0.67430      .   S
    C297   O808      0.67430      .   S
    C363   O809      0.67340      .   S
    C293   O809      0.67340  1_565   S
    C339   O810      0.67427      .   S
    C153   O810      0.67427      .   S
    C339   O811      0.67336      .   S
    C149   O811      0.67336      .   S
    C119   O812      0.54506      .   S
    C297   O812      0.54506      .   S
    C23    O813      0.54507      .   S
    C153   O813      0.54507      .   S
    C257   O814      0.69607      .   S
    C256   O814      0.69607      .   S
    C209   O815      0.69607      .   S
    C208   O815      0.69607      .   S
    C131   O816      0.54473      .   S
    C315   O816      0.54473      .   S
    C35    O817      0.54481      .   S
    C171   O817      0.54481      .   S
    C367   O818      0.67407      .   S
    C315   O818      0.67407  1_545   S
    C367   O819      0.67459      .   S
    C311   O819      0.67459      .   S
    C343   O820      0.67414      .   S
    C171   O820      0.67414      .   S
    C343   O821      0.67458      .   S
    C167   O821      0.67458      .   S
    C187   O822      0.69583      .   S
    C188   O822      0.69583      .   S
    C235   O823      0.69582      .   S
    C236   O823      0.69582      .   S
    C88    O824      0.54486      .   S
    C253   O824      0.54486      .   S
    C56    O825      0.54455      .   S
    C205   O825      0.54455      .   S
    C20    O826      0.54491      .   S
    C149   O826      0.54491      .   S
    C116   O827      0.54492      .   S
    C293   O827      0.54492      .   S
    C79    O828      0.54447      .   S
    C239   O828      0.54447      .   S
    C47    O829      0.54449      .   S
    C191   O829      0.54449      .   S
    C128   O830      0.54570      .   S
    C311   O830      0.54570      .   S
    C32    O831      0.54525      .   S
    C167   O831      0.54525      .   S
    C205   O832      0.69421      .   S
    C206   O832      0.69421      .   S
    C253   O833      0.69472      .   S
    C254   O833      0.69472      .   S
    C239   O834      0.69469      .   S
    C238   O834      0.69469      .   S
    C191   O835      0.69470      .   S
    C190   O835      0.69470      .   S
    C297   O836      0.69305      .   S
    C296   O836      0.69305      .   S
    C153   O837      0.69304      .   S
    C152   O837      0.69304      .   S
    C315   O838      0.69393      .   S
    C314   O838      0.69393      .   S
    C171   O839      0.69372      .   S
    C170   O839      0.69372      .   S
    C293   O840      0.69362      .   S
    C294   O840      0.69362      .   S
    C149   O841      0.69371      .   S
    C150   O841      0.69371      .   S
    C167   O842      0.69344      .   S
    C168   O842      0.69344      .   S
    C311   O843      0.69344      .   S
    C312   O843      0.69344      .   S
    C256   O844      0.54442      .   S
    C90    O844      0.54442      .   S
    C256   O845      0.70089      .   S
    C255   O845      0.70089      .   S
    C208   O846      0.54442      .   S
    C58    O846      0.54442      .   S
    C208   O847      0.70089      .   S
    C207   O847      0.70089  1_545   S
    C188   O848      0.54447      .   S
    C45    O848      0.54447      .   S
    C188   O849      0.70136      .   S
    C189   O849      0.70136  1_565   S
    C236   O850      0.54447      .   S
    C77    O850      0.54447      .   S
    C236   O851      0.70136      .   S
    C237   O851      0.70136      .   S
    C206   O852      0.70302      .   S
    C207   O852      0.70302      .   S
    C206   O853      0.54607      .   S
    C57    O853      0.54607      .   S
    C254   O854      0.70283      .   S
    C255   O854      0.70283      .   S
    C254   O855      0.54566      .   S
    C89    O855      0.54566      .   S
    C238   O856      0.70298      .   S
    C237   O856      0.70298      .   S
    C238   O857      0.54567      .   S
    C78    O857      0.54567      .   S
    C190   O858      0.70298      .   S
    C189   O858      0.70298      .   S
    C190   O859      0.54564      .   S
    C46    O859      0.54564      .   S
    C296   O860      0.54534      .   S
    C118   O860      0.54534      .   S
    C296   O861      0.70321      .   S
    C295   O861      0.70321      .   S
    C152   O862      0.54538      .   S
    C22    O862      0.54538      .   S
    C152   O863      0.70322      .   S
    C151   O863      0.70322      .   S
    C294   O864      0.54191      .   S
    C117   O864      0.54191      .   S
    C294   O865      0.70144  1_565   S
    C295   O865      0.70144      .   S
    C150   O866      0.54192      .   S
    C21    O866      0.54192      .   S
    C150   O867      0.70141      .   S
    C151   O867      0.70141      .   S
    C314   O868      0.54163      .   S
    C130   O868      0.54163      .   S
    C314   O869      0.70159  1_545   S
    C313   O869      0.70159      .   S
    C170   O870      0.54166      .   S
    C34    O870      0.54166      .   S
    C170   O871      0.70163      .   S
    C169   O871      0.70163      .   S
    C168   O872      0.54524      .   S
    C33    O872      0.54524      .   S
    C168   O873      0.70353      .   S
    C169   O873      0.70353      .   S
    C312   O874      0.54527      .   S
    C129   O874      0.54527      .   S
    C312   O875      0.70351      .   S
    C313   O875      0.70351      .   S
    C207   O876      0.74704      .   S
    C203   O876      0.74704  1_565   S
    C255   O877      0.74706      .   S
    C251   O877      0.74706      .   S
    C237   O878      0.74688      .   S
    C233   O878      0.74688      .   S
    C189   O879      0.74689      .   S
    C185   O879      0.74689  1_545   S
    C295   O880      0.69809      .   S
    C362   O880      0.69809      .   S
    C151   O881      0.69808      .   S
    C338   O881      0.69808      .   S
    C169   O882      0.69807      .   S
    C342   O882      0.69807      .   S
    C313   O883      0.69817      .   S
    C366   O883      0.69817      .   S
    C251   O884      0.61671      .   S
    C395   O884      0.61671      .   S
    C203   O885      0.61671      .   S
    C383   O885      0.61671      .   S
    C233   O886      0.61706      .   S
    C393   O886      0.61706      .   S
    C185   O887      0.61705      .   S
    C381   O887      0.61705      .   S
