# CIF file generated by openbabel 2.4.90, see http://openbabel.sf.net
data_I
_chemical_name_common ''
_cell_length_a 13.637
_cell_length_b 13.618
_cell_length_c 16.926
_cell_angle_alpha 90.002
_cell_angle_beta 90.005
_cell_angle_gamma 117.781
_space_group_name_H-M_alt 'P 1'
_space_group_name_Hall 'P 1'
loop_
    _symmetry_equiv_pos_as_xyz
    x,y,z
loop_
    _atom_site_label
    _atom_site_type_symbol
    _atom_site_fract_x
    _atom_site_fract_y
    _atom_site_fract_z
    _atom_site_occupancy
    Lv0     Lv   0.50824   0.23649   0.26387   1.000
    Lv1     Lv   0.50825   0.73650   0.23611   1.000
    Lv2     Lv   0.49106   0.76350   0.73614   1.000
    Lv3     Lv   0.49968   0.50005   0.49970   1.000
    Lv4     Lv   0.49968   0.00005   0.99995   1.000
    Lv5     Lv   0.49103   0.26348   0.76374   1.000
