# CIF file generated by openbabel 2.4.90, see http://openbabel.sf.net
data_I
_chemical_name_common ''
_cell_length_a 13.637
_cell_length_b 13.618
_cell_length_c 16.926
_cell_angle_alpha 90.002
_cell_angle_beta 90.005
_cell_angle_gamma 117.781
_space_group_name_H-M_alt 'P 1'
_space_group_name_Hall 'P 1'
loop_
    _symmetry_equiv_pos_as_xyz
    x,y,z
loop_
    _atom_site_label
    _atom_site_type_symbol
    _atom_site_fract_x
    _atom_site_fract_y
    _atom_site_fract_z
    _atom_site_occupancy
    C0      C    0.90484   0.06089   0.38696   1.000
    C1      C    0.09218   0.42800   0.10720   1.000
    C2      C    0.09449   0.43948   0.88895   1.000
    C3      C    0.90676   0.07147   0.60471   1.000
    C4      C    0.09446   0.93946   0.61106   1.000
    C5      C    0.90676   0.57149   0.89529   1.000
    C6      C    0.90483   0.56090   0.11302   1.000
    C7      C    0.09218   0.92802   0.39276   1.000
