# CIF file generated by openbabel 2.4.90, see http://openbabel.sf.net
data_I
_chemical_name_common ''
_cell_length_a 13.637
_cell_length_b 13.618
_cell_length_c 16.926
_cell_angle_alpha 90.002
_cell_angle_beta 90.005
_cell_angle_gamma 117.781
_space_group_name_H-M_alt 'P 1'
_space_group_name_Hall 'P 1'
loop_
    _symmetry_equiv_pos_as_xyz
    x,y,z
loop_
    _atom_site_label
    _atom_site_type_symbol
    _atom_site_fract_x
    _atom_site_fract_y
    _atom_site_fract_z
    _atom_site_occupancy
    Zr0     Zr   0.08924   0.10963   0.49679   1.000
    Zr1     Zr   0.91017   0.39030   0.99960   1.000
    Zr2     Zr   0.91017   0.89030   0.50039   1.000
    Zr3     Zr   0.08924   0.60965   0.00000   1.000
    Zr4     Zr   0.90484   0.06089   0.38696   1.000
    Zr5     Zr   0.09218   0.42800   0.10720   1.000
    Zr6     Zr   0.09449   0.43948   0.88895   1.000
    Zr7     Zr   0.90676   0.07147   0.60471   1.000
    Zr8     Zr   0.09446   0.93946   0.61106   1.000
    Zr9     Zr   0.90676   0.57149   0.89529   1.000
    Zr10    Zr   0.90483   0.56090   0.11302   1.000
    Zr11    Zr   0.09218   0.92802   0.39276   1.000
    Zr12    Zr   0.99582   0.13831   0.41273   1.000
    Zr13    Zr   0.85824   0.96024   0.41030   1.000
    Zr14    Zr   0.13908   0.52996   0.08661   1.000
    Zr15    Zr   0.99885   0.35341   0.08258   1.000
    Zr16    Zr   0.00244   0.36257   0.91362   1.000
    Zr17    Zr   0.14245   0.53944   0.91378   1.000
    Zr18    Zr   0.85859   0.96996   0.58307   1.000
    Zr19    Zr   0.00000   0.14552   0.58057   1.000
    Zr20    Zr   0.00241   0.86254   0.58637   1.000
    Zr21    Zr   0.14244   0.03940   0.58622   1.000
    Zr22    Zr   0.85861   0.46997   0.91692   1.000
    Zr23    Zr   0.00000   0.64554   0.91942   1.000
    Zr24    Zr   0.99581   0.63832   0.08727   1.000
    Zr25    Zr   0.85825   0.46024   0.08960   1.000
    Zr26    Zr   0.13910   0.02996   0.41339   1.000
    Zr27    Zr   0.99886   0.85343   0.41742   1.000
    O28     O    0.11416   0.56981   0.04331   1.000
    O29     O    0.04253   0.62399   0.04364   1.000
    O30     O    0.11585   0.57455   0.95689   1.000
    O31     O    0.04462   0.62760   0.95971   1.000
    O32     O    0.04551   0.39071   0.09489   1.000
    O33     O    0.95451   0.37185   0.04109   1.000
    O34     O    0.11563   0.47898   0.09690   1.000
    O35     O    0.95032   0.59961   0.10014   1.000
    O36     O    0.88154   0.51057   0.10131   1.000
    O37     O    0.88421   0.42527   0.04460   1.000
    O38     O    0.88154   0.01057   0.39863   1.000
    O39     O    0.95033   0.09960   0.39985   1.000
    O40     O    0.11564   0.97899   0.40307   1.000
    O41     O    0.04552   0.89072   0.40509   1.000
    O42     O    0.88421   0.92527   0.45534   1.000
    O43     O    0.04253   0.12397   0.45476   1.000
    O44     O    0.11417   0.06980   0.45509   1.000
    O45     O    0.95452   0.87186   0.45890   1.000
    O46     O    0.04462   0.12758   0.53868   1.000
    O47     O    0.11584   0.07452   0.54150   1.000
    O48     O    0.88438   0.93013   0.54173   1.000
    O49     O    0.95629   0.87642   0.54338   1.000
    O50     O    0.95338   0.10850   0.59264   1.000
    O51     O    0.88268   0.02072   0.59389   1.000
    O52     O    0.11845   0.98943   0.59864   1.000
    O53     O    0.04844   0.90100   0.59871   1.000
    O54     O    0.04846   0.40102   0.90129   1.000
    O55     O    0.11847   0.48946   0.90136   1.000
    O56     O    0.88268   0.52073   0.90610   1.000
    O57     O    0.95338   0.60852   0.90735   1.000
    O58     O    0.95630   0.37643   0.95661   1.000
    O59     O    0.88439   0.43013   0.95826   1.000
    O60     O    0.99971   0.99997   0.49859   1.000
    O61     O    0.99971   0.49997   0.99980   1.000
    N62     N    0.50824   0.23649   0.26387   1.000
    O63     O    0.31530   0.07363   0.31354   1.000
    O64     O    0.69217   0.40594   0.20463   1.000
    N65     N    0.50825   0.73650   0.23611   1.000
    O66     O    0.31531   0.57362   0.18644   1.000
    O67     O    0.69217   0.90593   0.29535   1.000
    N68     N    0.49106   0.76350   0.73614   1.000
    O69     O    0.68402   0.92613   0.68537   1.000
    O70     O    0.30702   0.59427   0.79625   1.000
    N71     N    0.49968   0.50005   0.49970   1.000
    O72     O    0.33173   0.34138   0.49749   1.000
    O73     O    0.66766   0.65865   0.50118   1.000
    N74     N    0.49968   0.00005   0.99995   1.000
    O75     O    0.66766   0.15865   0.99864   1.000
    O76     O    0.33173   0.84140   0.99998   1.000
    N77     N    0.49103   0.26348   0.76374   1.000
    O78     O    0.68400   0.42613   0.81457   1.000
    O79     O    0.30699   0.09426   0.70370   1.000
loop_
    _geom_bond_atom_site_label_1
    _geom_bond_atom_site_label_2
    _geom_bond_distance
    _geom_bond_site_symmetry_2
    _ccdc_geom_bond_type
    Zr3    O28       1.05784      .   S
    Zr14   O28       1.05784      .   S
    Zr3    O29       1.05138      .   S
    Zr24   O29       1.05138  1_655   S
    Zr3    O30       1.02679  1_554   S
    Zr17   O30       1.02679      .   S
    Zr3    O31       1.01666  1_554   S
    Zr23   O31       1.01666      .   S
    Zr15   O32       0.63643  1_655   S
    Zr5    O32       0.63643      .   S
    Zr15   O33       1.03116      .   S
    Zr1    O33       1.03116  1_556   S
    Zr14   O34       0.63850      .   S
    Zr5    O34       0.63850      .   S
    Zr24   O35       0.63668      .   S
    Zr10   O35       0.63668      .   S
    Zr25   O36       0.63797      .   S
    Zr10   O36       0.63797      .   S
    Zr25   O37       1.04379      .   S
    Zr1    O37       1.04379  1_556   S
    Zr4    O38       0.63768      .   S
    Zr13   O38       0.63768  1_565   S
    Zr4    O39       0.63670      .   S
    Zr12   O39       0.63670      .   S
    Zr11   O40       0.63848      .   S
    Zr26   O40       0.63848  1_545   S
    Zr11   O41       0.63650      .   S
    Zr27   O41       0.63650  1_655   S
    Zr13   O42       1.04432      .   S
    Zr2    O42       1.04432      .   S
    Zr12   O43       1.03241  1_655   S
    Zr0    O43       1.03241      .   S
    Zr26   O44       1.03918      .   S
    Zr0    O44       1.03918      .   S
    Zr27   O45       1.03124      .   S
    Zr2    O45       1.03124      .   S
    Zr0    O46       1.03508      .   S
    Zr19   O46       1.03508      .   S
    Zr0    O47       1.04629      .   S
    Zr21   O47       1.04629      .   S
    Zr2    O48       1.04178      .   S
    Zr18   O48       1.04178      .   S
    Zr2    O49       1.03515      .   S
    Zr20   O49       1.03515  1_455   S
    Zr19   O50       0.63351  1_455   S
    Zr7    O50       0.63351      .   S
    Zr18   O51       0.63836  1_565   S
    Zr7    O51       0.63836      .   S
    Zr21   O52       0.63781  1_545   S
    Zr8    O52       0.63781      .   S
    Zr20   O53       0.63674      .   S
    Zr8    O53       0.63674      .   S
    Zr6    O54       0.63673      .   S
    Zr16   O54       0.63673      .   S
    Zr6    O55       0.63788      .   S
    Zr17   O55       0.63788      .   S
    Zr9    O56       0.63844      .   S
    Zr22   O56       0.63844      .   S
    Zr9    O57       0.63347      .   S
    Zr23   O57       0.63347  1_455   S
    Zr16   O58       1.03523  1_455   S
    Zr1    O58       1.03523      .   S
    Zr22   O59       1.04179      .   S
    Zr1    O59       1.04179      .   S
    Zr0    O60       1.42205  1_445   S
    Zr2    O60       1.42205      .   S
    Zr1    O61       1.42187      .   S
    Zr3    O61       1.42187  1_454   S
    N62    O63       2.66633      .   S
    Zr11   O63       3.06017  1_565   S
    N62    O64       2.68824      .   S
    Zr10   O64       3.09260      .   S
    N65    O66       2.66618      .   S
    Zr5    O66       3.06009      .   S
    N65    O67       2.68793      .   S
    Zr4    O67       3.09224  1_545   S
    N68    O69       2.67124      .   S
    Zr7    O69       3.06667  1_545   S
    N68    O70       2.69331      .   S
    Zr6    O70       3.10026      .   S
    N71    O72       2.30270      .   S
    Zr0    O72       3.34169      .   S
    N71    O73       2.30239      .   S
    Zr2    O73       3.34120      .   S
    N74    O75       2.30232      .   S
    Zr1    O75       3.34117      .   S
    N74    O76       2.30234  1_545   S
    Zr3    O76       3.34162  1_554   S
    N77    O78       2.67151      .   S
    Zr9    O78       3.06706      .   S
    N77    O79       2.69262      .   S
    Zr8    O79       3.09938  1_565   S
