# CIF file generated by openbabel 2.4.90, see http://openbabel.sf.net
data_I
_chemical_name_common ''
_cell_length_a 13.637
_cell_length_b 13.618
_cell_length_c 16.926
_cell_angle_alpha 90.002
_cell_angle_beta 90.005
_cell_angle_gamma 117.781
_space_group_name_H-M_alt 'P 1'
_space_group_name_Hall 'P 1'
loop_
    _symmetry_equiv_pos_as_xyz
    x,y,z
loop_
    _atom_site_label
    _atom_site_type_symbol
    _atom_site_fract_x
    _atom_site_fract_y
    _atom_site_fract_z
    _atom_site_occupancy
    N0      N    0.50824   0.23649   0.26387   1.000
    N1      N    0.50825   0.73650   0.23611   1.000
    N2      N    0.49106   0.76350   0.73614   1.000
    N3      N    0.49968   0.50005   0.49970   1.000
    N4      N    0.49968   0.00005   0.99995   1.000
    N5      N    0.49103   0.26348   0.76374   1.000
    Zr6     Zr   0.99951   0.99994   0.49877   1.000
    O7      O    0.16562   0.17066   0.49813   1.000
    O8      O    0.84177   0.96304   0.59207   1.000
    O9      O    0.15741   0.03678   0.40615   1.000
    O10     O    0.83358   0.82930   0.49997   1.000
    O11     O    0.15325   0.04710   0.60123   1.000
    O12     O    0.84584   0.95294   0.39706   1.000
    Zr13    Zr   0.99951   0.49995   0.00099   1.000
    O14     O    0.15741   0.53679   0.09371   1.000
    O15     O    0.16562   0.67067   0.00048   1.000
    O16     O    0.83359   0.32930   0.99982   1.000
    O17     O    0.84584   0.45294   0.10281   1.000
    O18     O    0.15327   0.54711   0.89862   1.000
    O19     O    0.84176   0.46304   0.90778   1.000
loop_
    _geom_bond_atom_site_label_1
    _geom_bond_atom_site_label_2
    _geom_bond_distance
    _geom_bond_site_symmetry_2
    _ccdc_geom_bond_type
    Zr6    O7        2.37219  1_665   S
    N3     O7        4.67179      .   S
    Zr6    O8        2.52326      .   S
    N2     O8        4.90823      .   S
    Zr6    O9        2.51774  1_665   S
    N0     O9        4.89484      .   S
    Zr6    O10       2.37042      .   S
    N3     O10       4.66967      .   S
    Zr6    O11       2.56129  1_665   S
    N5     O11       4.98110      .   S
    Zr6    O12       2.55217      .   S
    N1     O12       4.96503      .   S
    Zr13   O14       2.51869  1_655   S
    N1     O14       4.89529      .   S
    Zr13   O15       2.37220  1_655   S
    N4     O15       4.67169  1_546   S
    Zr13   O16       2.37045  1_554   S
    N4     O16       4.66965      .   S
    Zr13   O17       2.55375      .   S
    N0     O17       4.96671      .   S
    Zr13   O18       2.56060  1_654   S
    N2     O18       4.98155      .   S
    Zr13   O19       2.52216  1_554   S
    N5     O19       4.90770      .   S
