# CIF file generated by openbabel 2.4.90, see http://openbabel.sf.net
data_I
_chemical_name_common 'VESTA_phase_1'
_cell_length_a 19.518
_cell_length_b 19.551
_cell_length_c 19.542
_cell_angle_alpha 72.051
_cell_angle_beta 71.978
_cell_angle_gamma 71.943
_space_group_name_H-M_alt 'P 1'
_space_group_name_Hall 'P 1'
loop_
    _symmetry_equiv_pos_as_xyz
    x,y,z
loop_
    _atom_site_label
    _atom_site_type_symbol
    _atom_site_fract_x
    _atom_site_fract_y
    _atom_site_fract_z
    _atom_site_occupancy
    Zn0     Zn   0.54822   0.31750   0.98144   1.000
    Zn1     Zn   0.64315   0.21476   0.87635   1.000
    Zn2     Zn   0.98131   0.54925   0.31692   1.000
    Zn3     Zn   0.87689   0.64316   0.21300   1.000
    Zn4     Zn   0.31645   0.97755   0.55034   1.000
    Zn5     Zn   0.21172   0.87505   0.64435   1.000
    Zn6     Zn   0.81602   0.04866   0.48102   1.000
    Zn7     Zn   0.71224   0.14243   0.37717   1.000
    Zn8     Zn   0.04964   0.47744   0.81788   1.000
    Zn9     Zn   0.14485   0.37443   0.71289   1.000
    Zn10    Zn   0.48188   0.81704   0.04940   1.000
    Zn11    Zn   0.37657   0.71483   0.14359   1.000
    H12     H    0.48040   0.54873   0.02462   1.000
    H13     H    0.56373   0.72941   0.86433   1.000
    H14     H    0.62157   0.51533   0.81426   1.000
    H15     H    0.56092   0.75843   0.73437   1.000
    H16     H    0.66818   0.21250   0.14621   1.000
    H17     H    0.87920   0.07116   0.17776   1.000
    H18     H    0.82851   0.13145   0.96371   1.000
    H19     H    0.95891   0.13257   0.93427   1.000
    H20     H    0.02492   0.47929   0.54798   1.000
    H21     H    0.86451   0.56040   0.73042   1.000
    H22     H    0.81397   0.62070   0.51620   1.000
    H23     H    0.73416   0.55928   0.75984   1.000
    H24     H    0.14561   0.66998   0.21308   1.000
    H25     H    0.17681   0.88047   0.07166   1.000
    H26     H    0.96300   0.82895   0.13103   1.000
    H27     H    0.93318   0.95973   0.13316   1.000
    H28     H    0.54749   0.02188   0.48095   1.000
    H29     H    0.73003   0.86282   0.56304   1.000
    H30     H    0.51615   0.81144   0.62239   1.000
    H31     H    0.75983   0.73209   0.56088   1.000
    H32     H    0.21272   0.14328   0.66957   1.000
    H33     H    0.07136   0.17654   0.87992   1.000
    H34     H    0.12950   0.96246   0.82976   1.000
    H35     H    0.13213   0.93341   0.95973   1.000
    H36     H    0.04722   0.97934   0.52400   1.000
    H37     H    0.22969   0.06096   0.36461   1.000
    H38     H    0.01545   0.12088   0.31364   1.000
    H39     H    0.25944   0.05943   0.23430   1.000
    H40     H    0.71218   0.16915   0.64568   1.000
    H41     H    0.57180   0.38046   0.67688   1.000
    H42     H    0.63014   0.32847   0.46357   1.000
    H43     H    0.63288   0.45937   0.43383   1.000
    H44     H    0.98066   0.52281   0.04858   1.000
    H45     H    0.06279   0.36337   0.23050   1.000
    H46     H    0.12113   0.31158   0.01718   1.000
    H47     H    0.06000   0.23253   0.26024   1.000
    H48     H    0.16844   0.64368   0.71360   1.000
    H49     H    0.37869   0.67676   0.57160   1.000
    H50     H    0.32933   0.46235   0.63090   1.000
    H51     H    0.45935   0.43351   0.63257   1.000
    H52     H    0.52459   0.04845   0.98056   1.000
    H53     H    0.36351   0.22960   0.06338   1.000
    H54     H    0.31433   0.01514   0.12228   1.000
    H55     H    0.23356   0.25838   0.06153   1.000
    H56     H    0.64576   0.71268   0.17018   1.000
    H57     H    0.67742   0.57096   0.38051   1.000
    H58     H    0.46319   0.63112   0.32944   1.000
    H59     H    0.43345   0.63247   0.45981   1.000
    C60     C    0.54770   0.44560   0.94349   1.000
    C61     C    0.55095   0.52454   0.92134   1.000
    C62     C    0.51285   0.57055   0.97030   1.000
    C63     C    0.51772   0.64444   0.94915   1.000
    C64     C    0.55974   0.67209   0.87900   1.000
    C65     C    0.59786   0.62647   0.82939   1.000
    C66     C    0.59318   0.55235   0.85150   1.000
    C67     C    0.48044   0.69282   0.00240   1.000
    C68     C    0.64257   0.65565   0.75545   1.000
    C69     C    0.61539   0.72547   0.71274   1.000
    C70     C    0.69005   0.21437   0.00166   1.000
    C71     C    0.74368   0.17644   0.04960   1.000
    C72     C    0.72264   0.18039   0.12382   1.000
    C73     C    0.77184   0.14181   0.16946   1.000
    C74     C    0.84178   0.09993   0.14098   1.000
    C75     C    0.86374   0.09598   0.06658   1.000
    C76     C    0.81388   0.13473   0.02120   1.000
    C77     C    0.93766   0.05117   0.03696   1.000
    C78     C    0.98042   0.07811   0.96700   1.000
    C79     C    0.74983   0.14424   0.24869   1.000
    C80     C    0.94338   0.54762   0.44540   1.000
    C81     C    0.92130   0.55002   0.52464   1.000
    C82     C    0.97046   0.51141   0.57033   1.000
    C83     C    0.94938   0.51540   0.64455   1.000
    C84     C    0.87915   0.55712   0.67283   1.000
    C85     C    0.82932   0.59586   0.62750   1.000
    C86     C    0.85134   0.59191   0.55309   1.000
    C87     C    0.00296   0.47751   0.69254   1.000
    C88     C    0.75539   0.64066   0.65710   1.000
    C89     C    0.71264   0.61373   0.72704   1.000
    C90     C    0.00125   0.69099   0.21397   1.000
    C91     C    0.04898   0.74476   0.17647   1.000
    C92     C    0.12318   0.72414   0.18077   1.000
    C93     C    0.16871   0.77341   0.14240   1.000
    C94     C    0.14013   0.84299   0.10033   1.000
    C95     C    0.06570   0.86458   0.09616   1.000
    C96     C    0.02054   0.81463   0.13461   1.000
    C97     C    0.03595   0.93829   0.05147   1.000
    C98     C    0.96600   0.98114   0.07865   1.000
    C99     C    0.24797   0.75176   0.14507   1.000
    C100    C    0.44505   0.94027   0.54898   1.000
    C101    C    0.52432   0.91849   0.55165   1.000
    C102    C    0.56989   0.96772   0.51326   1.000
    C103    C    0.64409   0.94705   0.51757   1.000
    C104    C    0.67248   0.87717   0.55940   1.000
    C105    C    0.62730   0.82725   0.59788   1.000
    C106    C    0.55286   0.84888   0.59371   1.000
    C107    C    0.69189   0.00076   0.48014   1.000
    C108    C    0.65706   0.75354   0.64257   1.000
    C109    C    0.72702   0.71069   0.61539   1.000
    C110    C    0.21280   0.99923   0.69162   1.000
    C111    C    0.17546   0.04751   0.74498   1.000
    C112    C    0.18025   0.12141   0.72388   1.000
    C113    C    0.14208   0.16739   0.77286   1.000
    C114    C    0.09982   0.13954   0.84266   1.000
    C115    C    0.09522   0.06540   0.86473   1.000
    C116    C    0.13343   0.01980   0.81506   1.000
    C117    C    0.05049   0.03619   0.93865   1.000
    C118    C    0.07765   0.96636   0.98135   1.000
    C119    C    0.14527   0.24635   0.75077   1.000
    C120    C    0.94455   0.04755   0.44277   1.000
    C121    C    0.02385   0.05010   0.42067   1.000
    C122    C    0.06957   0.01158   0.46979   1.000
    C123    C    0.14381   0.01567   0.44897   1.000
    C124    C    0.17210   0.05752   0.37906   1.000
    C125    C    0.12674   0.09616   0.32925   1.000
    C126    C    0.05227   0.09212   0.35101   1.000
    C127    C    0.19169   0.97793   0.50264   1.000
    C128    C    0.15641   0.14092   0.25556   1.000
    C129    C    0.22652   0.11389   0.21286   1.000
    C130    C    0.71277   0.19017   0.50164   1.000
    C131    C    0.67555   0.24410   0.54932   1.000
    C132    C    0.68005   0.22349   0.62333   1.000
    C133    C    0.64204   0.27299   0.66800   1.000
    C134    C    0.60019   0.34279   0.64029   1.000
    C135    C    0.59581   0.36433   0.56606   1.000
    C136    C    0.63390   0.31417   0.52097   1.000
    C137    C    0.55112   0.43815   0.53640   1.000
    C138    C    0.57829   0.48088   0.46667   1.000
    C139    C    0.64482   0.25139   0.74790   1.000
    C140    C    0.04801   0.44062   0.94631   1.000
    C141    C    0.05082   0.41900   0.02538   1.000
    C142    C    0.01281   0.46846   0.07089   1.000
    C143    C    0.01737   0.44782   0.14488   1.000
    C144    C    0.05901   0.37771   0.17310   1.000
    C145    C    0.09709   0.32759   0.12805   1.000
    C146    C    0.09271   0.34920   0.05382   1.000
    C147    C    0.98024   0.50168   0.19265   1.000
    C148    C    0.14177   0.25375   0.15762   1.000
    C149    C    0.11459   0.21102   0.22740   1.000
    C150    C    0.19114   0.49918   0.71444   1.000
    C151    C    0.24425   0.54762   0.67667   1.000
    C152    C    0.22285   0.62169   0.68113   1.000
    C153    C    0.27167   0.66769   0.64258   1.000
    C154    C    0.34159   0.63971   0.60033   1.000
    C155    C    0.36393   0.56545   0.59597   1.000
    C156    C    0.31443   0.51982   0.63450   1.000
    C157    C    0.43797   0.53618   0.55110   1.000
    C158    C    0.48088   0.46637   0.57817   1.000
    C159    C    0.24946   0.74678   0.64543   1.000
    C160    C    0.44371   0.94528   0.04847   1.000
    C161    C    0.42137   0.02433   0.05144   1.000
    C162    C    0.47014   0.07039   0.01299   1.000
    C163    C    0.44868   0.14442   0.01750   1.000
    C164    C    0.37846   0.17215   0.05966   1.000
    C165    C    0.32899   0.12647   0.09814   1.000
    C166    C    0.35140   0.05223   0.09368   1.000
    C167    C    0.50175   0.19292   0.97994   1.000
    C168    C    0.25492   0.15570   0.14290   1.000
    C169    C    0.21202   0.22552   0.11591   1.000
    C170    C    0.50132   0.71422   0.19141   1.000
    C171    C    0.54913   0.67639   0.24514   1.000
    C172    C    0.62339   0.68041   0.22437   1.000
    C173    C    0.66907   0.64183   0.27351   1.000
    C174    C    0.64061   0.59976   0.34312   1.000
    C175    C    0.56613   0.59578   0.36484   1.000
    C176    C    0.52080   0.63450   0.31502   1.000
    C177    C    0.53645   0.55098   0.43851   1.000
    C178    C    0.46635   0.57800   0.48124   1.000
    C179    C    0.74838   0.64432   0.25149   1.000
    O180    O    0.58419   0.40313   0.89896   1.000
    O181    O    0.50937   0.41914   0.00735   1.000
    O182    O    0.44276   0.66485   0.06526   1.000
    O183    O    0.48950   0.75909   0.98160   1.000
    O184    O    0.68571   0.18194   0.27583   1.000
    O185    O    0.79471   0.10757   0.29074   1.000
    O186    O    0.71076   0.20667   0.93486   1.000
    O187    O    0.62696   0.25118   0.03063   1.000
    O188    O    0.89866   0.58446   0.40323   1.000
    O189    O    0.00747   0.50976   0.41836   1.000
    O190    O    0.06609   0.44070   0.66365   1.000
    O191    O    0.98218   0.48527   0.75935   1.000
    O192    O    0.27509   0.68814   0.18326   1.000
    O193    O    0.29005   0.79652   0.10823   1.000
    O194    O    0.93458   0.71128   0.20567   1.000
    O195    O    0.03015   0.62825   0.25113   1.000
    O196    O    0.40292   0.89550   0.58557   1.000
    O197    O    0.41798   0.00405   0.51101   1.000
    O198    O    0.66323   0.06339   0.44265   1.000
    O199    O    0.75841   0.98050   0.48886   1.000
    O200    O    0.18371   0.27283   0.68695   1.000
    O201    O    0.10868   0.28880   0.79528   1.000
    O202    O    0.20395   0.93289   0.71234   1.000
    O203    O    0.25034   0.02737   0.62876   1.000
    O204    O    0.90210   0.08424   0.39831   1.000
    O205    O    0.91780   0.00948   0.50666   1.000
    O206    O    0.16273   0.94099   0.56545   1.000
    O207    O    0.25850   0.98581   0.48223   1.000
    O208    O    0.68264   0.18753   0.77506   1.000
    O209    O    0.60835   0.29649   0.78982   1.000
    O210    O    0.70412   0.21037   0.43521   1.000
    O211    O    0.75006   0.12741   0.53036   1.000
    O212    O    0.08477   0.39570   0.90427   1.000
    O213    O    0.00990   0.50436   0.91927   1.000
    O214    O    0.94311   0.56458   0.16399   1.000
    O215    O    0.98886   0.48131   0.25909   1.000
    O216    O    0.18546   0.77363   0.68350   1.000
    O217    O    0.29412   0.78899   0.60872   1.000
    O218    O    0.21218   0.43272   0.70570   1.000
    O219    O    0.12821   0.52727   0.75216   1.000
    O220    O    0.39902   0.90303   0.08478   1.000
    O221    O    0.50792   0.91847   0.01065   1.000
    O222    O    0.56471   0.16488   0.94222   1.000
    O223    O    0.48068   0.25933   0.98879   1.000
    O224    O    0.77519   0.68244   0.18765   1.000
    O225    O    0.79077   0.60755   0.29599   1.000
    O226    O    0.43444   0.70658   0.21179   1.000
    O227    O    0.53043   0.75102   0.12858   1.000
loop_
    _geom_bond_atom_site_label_1
    _geom_bond_atom_site_label_2
    _geom_bond_distance
    _geom_bond_site_symmetry_2
    _ccdc_geom_bond_type
    C70    O187      1.27486      .   S
    C70    C71       1.49012      .   S
    C70    O186      1.28337  1_554   S
    C67    O182      1.27482      .   S
    C67    C63       1.48945  1_554   S
    C67    O183      1.28387  1_554   S
    O181   C60       1.28414  1_554   S
    O181   Zn0       2.05633  1_554   S
    O221   C160      1.28451      .   S
    O221   Zn10      2.05560      .   S
    C162   C163      1.39940      .   S
    C162   C161      1.39762      .   S
    C162   H52       1.08774  1_554   S
    H46    C146      1.08962      .   S
    C163   C164      1.40249      .   S
    C163   C167      1.48992  1_554   S
    C76    C71       1.40233      .   S
    C76    C75       1.40362      .   S
    C76    H18       1.08735  1_554   S
    H12    C62       1.08742  1_554   S
    C141   C146      1.40073      .   S
    C141   C142      1.39763      .   S
    C141   C140      1.48481  1_554   S
    O187   Zn0       1.96917  1_554   S
    C77    C75       1.48196      .   S
    C77    C98       1.40226  1_545   S
    C77    C78       1.40205  1_554   S
    C160   C161      1.48457  1_565   S
    C160   O220      1.28425      .   S
    H44    C142      1.08769  1_655   S
    Zn10   O220      2.06366      .   S
    Zn10   O227      1.96884      .   S
    Zn10   O183      1.93908  1_554   S
    C71    C72       1.39968      .   S
    C161   C166      1.40072      .   S
    C97    C98       1.40157  1_455   S
    C97    C95       1.48190      .   S
    C97    C118      1.40169  1_554   S
    C146   C145      1.40239      .   S
    C164   H53       1.08911      .   S
    C164   C165      1.40247      .   S
    H55    C169      1.09043      .   S
    O182   Zn11      1.97048      .   S
    C75    C74       1.40234      .   S
    C142   C143      1.39975      .   S
    H25    C94       1.08956      .   S
    C98    H27       1.09056      .   S
    C166   C165      1.40220      .   S
    C166   H54       1.08954      .   S
    C95    C94       1.40255      .   S
    C95    C96       1.40234      .   S
    C165   C168      1.48164      .   S
    C94    C93       1.40058      .   S
    O193   Zn11      2.06156      .   S
    O193   C99       1.28465      .   S
    C169   C168      1.40133      .   S
    C169   C148      1.40202      .   S
    C72    H16       1.08772      .   S
    C72    C73       1.39750      .   S
    C145   C148      1.48178      .   S
    C145   C144      1.40100      .   S
    O227   C170      1.27486      .   S
    H26    C96       1.08927  1_655   S
    C96    C91       1.40200      .   S
    C74    C73       1.40062      .   S
    C74    H17       1.08960      .   S
    C93    C99       1.48510      .   S
    C93    C92       1.39752      .   S
    C168   C129      1.40268      .   S
    Zn11   O192      2.05867      .   S
    Zn11   O226      1.94008      .   S
    C143   C144      1.40152      .   S
    C143   C147      1.48995  1_455   S
    C99    O192      1.28394      .   S
    C148   C149      1.40142      .   S
    O214   C147      1.27482      .   S
    O214   Zn3       1.96419      .   S
    C73    C79       1.48497      .   S
    H56    C172      1.08765      .   S
    C144   H45       1.08942      .   S
    C91    C92       1.39980      .   S
    C91    C90       1.48998      .   S
    C92    H24       1.08768      .   S
    O224   Zn3       2.05047      .   S
    O224   C179      1.28469      .   S
    C170   O226      1.28361      .   S
    C170   C171      1.48991      .   S
    C147   O215      1.28363      .   S
    O194   Zn3       1.94278      .   S
    O194   C90       1.28366  1_655   S
    C129   H39       1.09058      .   S
    C129   C128      1.40184      .   S
    Zn3    O225      2.06967      .   S
    C90    O195      1.27491      .   S
    C172   C171      1.39957      .   S
    C172   C173      1.39734      .   S
    C149   C128      1.40247      .   S
    C149   H47       1.09063      .   S
    C171   C176      1.40196      .   S
    C79    O184      1.28433      .   S
    C79    O185      1.28429      .   S
    O195   Zn2       1.96930  1_455   S
    C179   C173      1.48498      .   S
    C179   O225      1.28404      .   S
    C128   C125      1.48198      .   S
    O215   Zn2       1.94002      .   S
    C173   C174      1.40053      .   S
    O184   Zn7       2.05682      .   S
    O185   Zn7       2.06285      .   S
    H38    C126      1.08959      .   S
    C176   H58       1.08928      .   S
    C176   C175      1.40263      .   S
    Zn2    O188      2.06503      .   S
    Zn2    O189      2.05554  1_655   S
    C125   C126      1.40280      .   S
    C125   C124      1.40257      .   S
    C174   C175      1.40275      .   S
    C174   H57       1.08966      .   S
    C126   C121      1.40067      .   S
    H37    C124      1.08925      .   S
    C175   C177      1.48208      .   S
    Zn7    O210      1.93987      .   S
    Zn7    O198      1.96998      .   S
    C124   C123      1.40183      .   S
    O204   C120      1.28402      .   S
    O204   Zn6       2.06650      .   S
    O188   C80       1.28416      .   S
    O189   C80       1.28457  1_455   S
    C121   C120      1.48511  1_455   S
    C121   C122      1.39745      .   S
    H43    C138      1.09063      .   S
    O210   C130      1.28376      .   S
    C177   C138      1.40255      .   S
    C177   C178      1.40186      .   S
    O198   C107      1.27475      .   S
    C120   O205      1.28458      .   S
    C80    C81       1.48496      .   S
    C123   C122      1.39958      .   S
    C123   C127      1.48985  1_545   S
    H59    C178      1.09061      .   S
    H42    C136      1.08935      .   S
    C138   C137      1.40070      .   S
    C122   H36       1.08750  1_545   S
    C107   O199      1.28377  1_545   S
    C107   C103      1.48985  1_545   S
    H28    C102      1.08756  1_545   S
    Zn6    O199      1.93905  1_545   S
    Zn6    O205      2.05425      .   S
    Zn6    O211      1.96865      .   S
    C178   C157      1.40141      .   S
    O207   C127      1.28372      .   S
    O207   Zn4       1.93990      .   S
    C130   O211      1.27481      .   S
    C130   C131      1.48974      .   S
    C127   O206      1.27482      .   S
    O197   C100      1.28394  1_545   S
    O197   Zn4       2.05772  1_545   S
    C102   C103      1.39975      .   S
    C102   C101      1.39761      .   S
    H22    C86       1.09064      .   S
    C103   C104      1.40164      .   S
    C136   C131      1.40191      .   S
    C136   C135      1.40214      .   S
    C81    C86       1.40069      .   S
    C81    C82       1.39756      .   S
    C137   C135      1.48205      .   S
    C137   C158      1.40236      .   S
    H20    C82       1.08769  1_455   S
    C100   C101      1.48523      .   S
    C100   O196      1.28454      .   S
    C131   C132      1.39976      .   S
    Zn4    O196      2.06283      .   S
    Zn4    O203      1.96972  1_565   S
    C157   C158      1.40168      .   S
    C157   C155      1.48226      .   S
    C101   C106      1.40062      .   S
    C86    C85       1.40248      .   S
    C104   H29       1.08949      .   S
    C104   C105      1.40241      .   S
    H31    C109      1.09051      .   S
    O206   Zn5       1.96894      .   S
    C135   C134      1.40240      .   S
    C82    C83       1.39983      .   S
    H49    C154      1.08968      .   S
    C158   H51       1.09061      .   S
    C106   C105      1.40264      .   S
    C106   H30       1.08959      .   S
    C155   C154      1.40207      .   S
    C155   C156      1.40235      .   S
    C105   C108      1.48194      .   S
    C154   C153      1.40064      .   S
    O217   Zn5       2.06245      .   S
    O217   C159      1.28452      .   S
    C109   C108      1.40168      .   S
    C109   C88       1.40249      .   S
    C132   H40       1.08771      .   S
    C132   C133      1.38701      .   S
    C85    C88       1.48207      .   S
    C85    C84       1.40254      .   S
    O203   C110      1.27474  1_545   S
    H50    C156      1.08891      .   S
    C156   C151      1.40236      .   S
    C134   C133      1.39649      .   S
    C134   H41       1.08964      .   S
    C108   C69       1.40207      .   S
    C153   C159      1.48474      .   S
    C153   C152      1.39765      .   S
    Zn5    O216      2.05719      .   S
    Zn5    O202      1.93965      .   S
    C83    C84       1.40194      .   S
    C83    C87       1.49012  1_655   S
    C159   O216      1.28397      .   S
    C88    C89       1.40167      .   S
    O190   C87       1.27473      .   S
    O190   Zn9       1.96979      .   S
    C133   C139      1.50036      .   S
    H32    C112      1.08763      .   S
    C84    H21       1.08926      .   S
    C151   C152      1.39988      .   S
    C151   C150      1.49026      .   S
    C152   H48       1.08781      .   S
    O200   Zn9       2.05592      .   S
    O200   C119      1.28462      .   S
    C110   O202      1.28366      .   S
    C110   C111      1.48975  1_565   S
    C87    O191      1.28391  1_455   S
    O218   Zn9       1.93924      .   S
    O218   C150      1.28402      .   S
    C69    H15       1.09060      .   S
    C69    C68       1.40151      .   S
    Zn9    O201      2.06433      .   S
    C150   O219      1.27463      .   S
    C112   C111      1.39978      .   S
    C112   C113      1.39757      .   S
    C89    C68       1.40220      .   S
    C89    H23       1.09054      .   S
    C111   C116      1.40184      .   S
    C139   O208      1.28383      .   S
    C139   O209      1.28474      .   S
    C119   C113      1.48501      .   S
    C119   O201      1.28405      .   S
    O219   Zn8       1.97151      .   S
    C68    C65       1.48160      .   S
    O191   Zn8       1.94022  1_655   S
    C113   C114      1.40073      .   S
    O208   Zn1       2.06071      .   S
    O209   Zn1       2.06074      .   S
    H14    C66       1.08954      .   S
    C116   H34       1.08906  1_545   S
    C116   C115      1.40229      .   S
    Zn8    O212      2.06108      .   S
    Zn8    O213      2.05992      .   S
    C65    C66       1.40233      .   S
    C65    C64       1.40154      .   S
    C114   C115      1.40233      .   S
    C114   H33       1.08968      .   S
    C66    C61       1.40078      .   S
    H13    C64       1.08927      .   S
    C115   C117      1.48166      .   S
    Zn1    O186      1.94093      .   S
    Zn1    O222      1.97079      .   S
    C64    C63       1.40242      .   S
    O180   C60       1.28425      .   S
    O180   Zn0       2.06369      .   S
    O212   C140      1.28461      .   S
    O213   C140      1.28393      .   S
    C61    C60       1.48505      .   S
    C61    C62       1.39758      .   S
    H19    C78       1.09012      .   S
    C117   C78       1.40187  1_455   S
    C117   C118      1.40137  1_545   S
    O222   C167      1.27469      .   S
    C63    C62       1.39975      .   S
    H35    C118      1.09061      .   S
    C167   O223      1.28388      .   S
    Zn0    O223      1.93993      .   S
