# CIF file generated by openbabel 2.4.90, see http://openbabel.sf.net
data_I
_chemical_name_common ''
_cell_length_a 13.172
_cell_length_b 13.948
_cell_length_c 16.991
_cell_angle_alpha 90.05
_cell_angle_beta 90.016
_cell_angle_gamma 90.246
_space_group_name_H-M_alt 'P 1'
_space_group_name_Hall 'P 1'
loop_
    _symmetry_equiv_pos_as_xyz
    x,y,z
loop_
    _atom_site_label
    _atom_site_type_symbol
    _atom_site_fract_x
    _atom_site_fract_y
    _atom_site_fract_z
    _atom_site_occupancy
    C0      C    0.46662   0.91506   0.24410   1.000
    C1      C    0.42201   0.01324   0.22031   1.000
    C2      C    0.53667   0.58357   0.74360   1.000
    C3      C    0.57856   0.48408   0.72000   1.000
    C4      C    0.96819   0.08478   0.25568   1.000
    C5      C    0.92248   0.98666   0.27948   1.000
    C6      C    0.03485   0.41601   0.75614   1.000
    C7      C    0.07820   0.51523   0.77972   1.000
    C8      C    0.53341   0.08492   0.75589   1.000
    C9      C    0.57800   0.98674   0.77968   1.000
    C10     C    0.46337   0.41641   0.25600   1.000
    C11     C    0.42146   0.51590   0.27999   1.000
    C12     C    0.03184   0.91520   0.74431   1.000
    C13     C    0.07754   0.01332   0.72051   1.000
    C14     C    0.96518   0.58397   0.24385   1.000
    C15     C    0.92182   0.48475   0.22027   1.000
loop_
    _geom_bond_atom_site_label_1
    _geom_bond_atom_site_label_2
    _geom_bond_distance
    _geom_bond_site_symmetry_2
    _ccdc_geom_bond_type
    C15    C14       1.54721      .   S
    C1     C0        1.54647  1_545   S
    C4     C5        1.54694  1_545   S
    C10    C11       1.54987      .   S
    C3     C2        1.54814      .   S
    C13    C12       1.54695  1_545   S
    C8     C9        1.54646  1_545   S
    C6     C7        1.54721      .   S
