# CIF file generated by openbabel 2.4.90, see http://openbabel.sf.net
data_I
_chemical_name_common ''
_cell_length_a 13.172
_cell_length_b 13.948
_cell_length_c 16.991
_cell_angle_alpha 90.05
_cell_angle_beta 90.016
_cell_angle_gamma 90.246
_space_group_name_H-M_alt 'P 1'
_space_group_name_Hall 'P 1'
loop_
    _symmetry_equiv_pos_as_xyz
    x,y,z
loop_
    _atom_site_label
    _atom_site_type_symbol
    _atom_site_fract_x
    _atom_site_fract_y
    _atom_site_fract_z
    _atom_site_occupancy
    Zr0     Zr   0.42612   0.97961   0.40648   1.000
    Zr1     Zr   0.47619   0.90842   0.07322   1.000
    Zr2     Zr   0.57406   0.52009   0.90666   1.000
    Zr3     Zr   0.52398   0.59159   0.57310   1.000
    Zr4     Zr   0.92518   0.02009   0.09364   1.000
    Zr5     Zr   0.97779   0.09148   0.42671   1.000
    Zr6     Zr   0.07504   0.48014   0.59354   1.000
    Zr7     Zr   0.02236   0.40845   0.92681   1.000
    Zr8     Zr   0.57391   0.02037   0.59351   1.000
    Zr9     Zr   0.52384   0.09156   0.92677   1.000
    Zr10    Zr   0.42596   0.47989   0.09333   1.000
    Zr11    Zr   0.47604   0.40839   0.42689   1.000
    Zr12    Zr   0.07485   0.97989   0.90635   1.000
    Zr13    Zr   0.02223   0.90850   0.57328   1.000
    Zr14    Zr   0.92499   0.51984   0.40645   1.000
    Zr15    Zr   0.97767   0.59153   0.07318   1.000
    C16     C    0.94350   0.53436   0.23206   1.000
    C17     C    0.94534   0.03572   0.26758   1.000
    C18     C    0.44241   0.46615   0.26800   1.000
    C19     C    0.05653   0.46562   0.76793   1.000
    C20     C    0.55571   0.03583   0.76778   1.000
    C21     C    0.44432   0.96415   0.23220   1.000
    C22     C    0.55761   0.53383   0.73180   1.000
    C23     C    0.05469   0.96426   0.73241   1.000
    C24     C    0.08821   0.03667   0.71461   1.000
    O25     O    0.07716   0.01273   0.72054   1.000
    O26     O    0.06980   0.00296   0.66241   1.000
    C27     C    0.58838   0.46047   0.71419   1.000
    O28     O    0.57061   0.49493   0.66204   1.000
    O29     O    0.57823   0.48471   0.72005   1.000
    C30     C    0.20519   0.01876   0.41909   1.000
    O31     O    0.27742   0.99930   0.41817   1.000
    O32     O    0.12547   0.03966   0.42776   1.000
    O33     O    0.14042   0.97361   0.47589   1.000
    C34     C    0.98401   0.71500   0.49930   1.000
    O35     O    0.96732   0.64330   0.47223   1.000
    O36     O    0.99834   0.77563   0.52912   1.000
    O37     O    0.01465   0.62895   0.53773   1.000
    C38     C    0.98023   0.11024   0.24960   1.000
    O39     O    0.96850   0.08525   0.25561   1.000
    O40     O    0.96563   0.08627   0.19398   1.000
    O41     O    0.98347   0.11335   0.30899   1.000
    C42     C    0.01600   0.28498   0.50069   1.000
    O43     O    0.00168   0.22435   0.47087   1.000
    O44     O    0.03269   0.35668   0.52776   1.000
    O45     O    0.98536   0.37103   0.46226   1.000
    C46     C    0.01638   0.78521   0.99935   1.000
    O47     O    0.03294   0.85677   0.97231   1.000
    O48     O    0.00196   0.72450   0.02912   1.000
    O49     O    0.98558   0.87122   0.03781   1.000
    C50     C    0.70443   0.98119   0.08137   1.000
    O51     O    0.77669   0.00059   0.08225   1.000
    O52     O    0.62446   0.96035   0.07258   1.000
    O53     O    0.64043   0.02649   0.02455   1.000
    C54     C    0.70421   0.48093   0.41885   1.000
    O55     O    0.62424   0.46024   0.42757   1.000
    O56     O    0.77651   0.50026   0.41798   1.000
    O57     O    0.64037   0.52630   0.47562   1.000
    C58     C    0.48401   0.28459   0.00103   1.000
    O59     O    0.49886   0.22412   0.97116   1.000
    O60     O    0.51430   0.37086   0.96253   1.000
    O61     O    0.46752   0.35631   0.02794   1.000
    C62     C    0.97662   0.60981   0.24978   1.000
    O63     O    0.96283   0.58599   0.30550   1.000
    O64     O    0.96548   0.58449   0.24387   1.000
    O65     O    0.98062   0.61304   0.19056   1.000
    C66     C    0.48334   0.78486   0.49923   1.000
    O67     O    0.49834   0.72429   0.52900   1.000
    O68     O    0.46709   0.85642   0.47226   1.000
    O69     O    0.51390   0.87110   0.53772   1.000
    C70     C    0.02341   0.39017   0.75008   1.000
    O71     O    0.01941   0.38694   0.80936   1.000
    O72     O    0.03719   0.41400   0.69432   1.000
    O73     O    0.03455   0.41549   0.75606   1.000
    C74     C    0.52555   0.60954   0.74966   1.000
    O75     O    0.53634   0.58412   0.74368   1.000
    O76     O    0.53854   0.58587   0.80552   1.000
    O77     O    0.52151   0.61285   0.69043   1.000
    C78     C    0.01979   0.88974   0.75039   1.000
    O79     O    0.03439   0.91371   0.80601   1.000
    O80     O    0.01655   0.88663   0.69100   1.000
    O81     O    0.03153   0.91473   0.74438   1.000
    C82     C    0.79501   0.48086   0.91922   1.000
    O83     O    0.85966   0.52611   0.97601   1.000
    O84     O    0.72275   0.50029   0.91834   1.000
    O85     O    0.87474   0.46012   0.92784   1.000
    C86     C    0.98363   0.21477   0.00064   1.000
    O87     O    0.01444   0.12876   0.96218   1.000
    O88     O    0.99806   0.27548   0.97087   1.000
    O89     O    0.96708   0.14321   0.02768   1.000
    C90     C    0.79484   0.98122   0.58089   1.000
    O91     O    0.85961   0.02637   0.52410   1.000
    O92     O    0.87456   0.96032   0.57223   1.000
    O93     O    0.72261   0.00068   0.58182   1.000
    C94     C    0.51601   0.71539   0.99895   1.000
    O95     O    0.53250   0.64367   0.97205   1.000
    O96     O    0.50116   0.77586   0.02882   1.000
    O97     O    0.48572   0.62912   0.03746   1.000
    C98     C    0.47448   0.39044   0.25020   1.000
    O99     O    0.46148   0.41411   0.19441   1.000
    O100    O    0.47852   0.38713   0.30950   1.000
    O101    O    0.46368   0.41586   0.25610   1.000
    C102    C    0.29581   0.51906   0.58112   1.000
    O103    O    0.37578   0.53974   0.57241   1.000
    O104    O    0.22351   0.49972   0.58199   1.000
    O105    O    0.35965   0.47368   0.52434   1.000
    C106    C    0.20501   0.51912   0.08077   1.000
    O107    O    0.12529   0.53986   0.07215   1.000
    O108    O    0.14037   0.47386   0.02398   1.000
    O109    O    0.27727   0.49969   0.08165   1.000
    C110    C    0.51667   0.21512   0.50075   1.000
    O111    O    0.48612   0.12888   0.46225   1.000
    O112    O    0.53293   0.14356   0.52773   1.000
    O113    O    0.50168   0.27569   0.47099   1.000
    C114    C    0.58846   0.96338   0.78555   1.000
    O115    O    0.57766   0.98733   0.77964   1.000
    O116    O    0.57074   0.99720   0.83774   1.000
    C117    C    0.91169   0.46118   0.21453   1.000
    O118    O    0.92218   0.48537   0.22035   1.000
    O119    O    0.93026   0.49524   0.16232   1.000
    C120    C    0.41157   0.03659   0.21444   1.000
    O121    O    0.42929   0.00278   0.16225   1.000
    O122    O    0.42237   0.01264   0.22035   1.000
    C123    C    0.08833   0.53880   0.78546   1.000
    O124    O    0.06976   0.50474   0.83767   1.000
    O125    O    0.07785   0.51461   0.77964   1.000
    C126    C    0.29559   0.01879   0.91862   1.000
    O127    O    0.22333   0.99940   0.91774   1.000
    O128    O    0.35960   0.97349   0.97544   1.000
    O129    O    0.37556   0.03963   0.92741   1.000
    C130    C    0.91182   0.96331   0.28534   1.000
    O131    O    0.92286   0.98725   0.27944   1.000
    O132    O    0.93023   0.99702   0.33755   1.000
    C133    C    0.47843   0.88958   0.25019   1.000
    O134    O    0.46695   0.91459   0.24417   1.000
    O135    O    0.46455   0.91353   0.30589   1.000
    O136    O    0.48161   0.88649   0.19084   1.000
    C137    C    0.52160   0.11039   0.74979   1.000
    O138    O    0.51841   0.11349   0.80914   1.000
    O139    O    0.53547   0.08645   0.69410   1.000
    O140    O    0.53308   0.08538   0.75582   1.000
    C141    C    0.41165   0.53951   0.28577   1.000
    O142    O    0.42179   0.51527   0.27988   1.000
    O143    O    0.42942   0.50504   0.33793   1.000
loop_
    _geom_bond_atom_site_label_1
    _geom_bond_atom_site_label_2
    _geom_bond_distance
    _geom_bond_site_symmetry_2
    _ccdc_geom_bond_type
    C24    O25       0.37744      .   S
    C23    O25       0.76417  1_565   S
    C24    O26       1.03190      .   S
    Zr13   O26       2.10018  1_565   S
    C27    O28       1.03569      .   S
    Zr3    O28       2.11860      .   S
    C27    O29       0.37738      .   S
    C22    O29       0.76442      .   S
    C30    O31       0.99060  1_545   S
    Zr0    O31       1.98900      .   S
    C30    O32       1.10082      .   S
    Zr5    O32       2.07813  1_655   S
    C30    O33       1.43264  1_545   S
    Zr13   O33       2.44507      .   S
    C34    O35       1.12127      .   S
    Zr14   O35       2.12456      .   S
    C34    O36       1.00263      .   S
    Zr13   O36       2.02221  1_455   S
    C34    O37       1.42655  1_655   S
    Zr6    O37       2.42017      .   S
    C38    O39       0.39434      .   S
    C17    O39       0.78107      .   S
    C38    O40       1.02018      .   S
    Zr4    O40       2.00871      .   S
    C38    O41       1.01087      .   S
    Zr5    O41       2.02494      .   S
    C42    O43       1.00262      .   S
    Zr5    O43       2.02219  1_655   S
    C42    O44       1.12127      .   S
    Zr6    O44       2.12462      .   S
    C42    O45       1.42653  1_455   S
    Zr14   O45       2.42014      .   S
    C46    O47       1.11971      .   S
    Zr12   O47       2.12257      .   S
    C46    O48       1.00419  1_556   S
    Zr15   O48       2.02489  1_655   S
    C46    O49       1.42620  1_456   S
    Zr4    O49       2.41988  1_545   S
    C50    O51       0.98853  1_565   S
    Zr4    O51       1.98291      .   S
    C50    O52       1.10162      .   S
    Zr1    O52       2.08018      .   S
    C50    O53       1.43075  1_565   S
    Zr9    O53       2.44038  1_556   S
    C54    O55       1.10104      .   S
    Zr11   O55       2.07881      .   S
    C54    O56       0.98888      .   S
    Zr14   O56       1.98326      .   S
    C54    O57       1.42905      .   S
    Zr3    O57       2.43584      .   S
    C58    O59       1.00395  1_554   S
    Zr9    O59       2.02446      .   S
    C58    O60       1.42564  1_554   S
    Zr2    O60       2.41722      .   S
    C58    O61       1.12166      .   S
    Zr10   O61       2.12381      .   S
    C62    O63       1.01976      .   S
    Zr14   O63       2.01020      .   S
    C62    O64       0.39482      .   S
    C16    O64       0.78162      .   S
    C62    O65       1.00866      .   S
    Zr15   O65       2.01695      .   S
    C66    O67       1.00533      .   S
    Zr3    O67       2.02717      .   S
    C66    O68       1.12010      .   S
    Zr0    O68       2.12217      .   S
    C66    O69       1.42512      .   S
    Zr8    O69       2.41668  1_545   S
    C70    O71       1.00976      .   S
    Zr7    O71       2.01804      .   S
    C70    O72       1.02027      .   S
    Zr6    O72       2.00783      .   S
    C70    O73       0.39511      .   S
    C19    O73       0.78191      .   S
    C74    O75       0.39576      .   S
    C22    O75       0.78280      .   S
    C74    O76       1.01983      .   S
    Zr2    O76       2.00497      .   S
    C74    O77       1.00896      .   S
    Zr3    O77       2.01544      .   S
    C78    O79       1.02017      .   S
    Zr12   O79       2.00871      .   S
    C78    O80       1.01087      .   S
    Zr13   O80       2.02493      .   S
    C78    O81       0.39434      .   S
    C23    O81       0.78107      .   S
    C82    O83       1.43127      .   S
    Zr15   O83       2.44093  1_554   S
    C82    O84       0.99087      .   S
    Zr2    O84       1.98897      .   S
    C82    O85       1.10023      .   S
    Zr7    O85       2.07668  1_455   S
    C86    O87       1.42617  1_654   S
    Zr12   O87       2.41987  1_565   S
    C86    O88       1.00416  1_554   S
    Zr7    O88       2.02486  1_455   S
    C86    O89       1.11974      .   S
    Zr4    O89       2.12259      .   S
    C90    O91       1.43262  1_565   S
    Zr5    O91       2.44504      .   S
    C90    O92       1.10082      .   S
    Zr13   O92       2.07814  1_455   S
    C90    O93       0.99060  1_565   S
    Zr8    O93       1.98900      .   S
    C94    O95       1.12164      .   S
    Zr2    O95       2.12379      .   S
    C94    O96       1.00392  1_556   S
    Zr1    O96       2.02452      .   S
    C94    O97       1.42567  1_556   S
    Zr10   O97       2.41724      .   S
    C98    O99       1.01880      .   S
    Zr10   O99       2.00403      .   S
    C98    O100      1.01006      .   S
    Zr11   O100      2.01654      .   S
    C98    O101      0.39541      .   S
    C18    O101      0.78287      .   S
    C102   O103      1.10102      .   S
    Zr3    O103      2.07884      .   S
    C102   O104      0.98887      .   S
    Zr6    O104      1.98325      .   S
    C102   O105      1.42912      .   S
    Zr11   O105      2.43559      .   S
    C106   O107      1.10023      .   S
    Zr15   O107      2.07668  1_655   S
    C106   O108      1.43126      .   S
    Zr7    O108      2.44091  1_556   S
    C106   O109      0.99088      .   S
    Zr10   O109      1.98898      .   S
    C110   O111      1.42518      .   S
    Zr0    O111      2.41652  1_565   S
    C110   O112      1.12016      .   S
    Zr8    O112      2.12225      .   S
    C110   O113      1.00525      .   S
    Zr11   O113      2.02713      .   S
    C114   O115      0.37732      .   S
    C20    O115      0.76393  1_545   S
    C114   O116      1.03136      .   S
    Zr9    O116      2.09906  1_545   S
    C117   O118      0.37710      .   S
    C16    O118      0.76390      .   S
    C117   O119      1.03555      .   S
    Zr15   O119      2.11770      .   S
    C120   O121      1.03135      .   S
    Zr1    O121      2.09907  1_565   S
    C120   O122      0.37732      .   S
    C21    O122      0.76394  1_565   S
    C123   O124      1.03555      .   S
    Zr7    O124      2.11771      .   S
    C123   O125      0.37710      .   S
    C19    O125      0.76390      .   S
    C126   O127      0.98853  1_545   S
    Zr12   O127      1.98290      .   S
    C126   O128      1.43079  1_545   S
    Zr1    O128      2.44044  1_554   S
    C126   O129      1.10164      .   S
    Zr9    O129      2.08019      .   S
    C130   O131      0.37736      .   S
    C17    O131      0.76410  1_545   S
    C130   O132      1.03193      .   S
    Zr5    O132      2.10055  1_545   S
    C133   O134      0.39435      .   S
    C21    O134      0.78096      .   S
    C133   O135      1.02015      .   S
    Zr0    O135      2.00718      .   S
    C133   O136      1.01017      .   S
    Zr1    O136      2.02328      .   S
    C137   O138      1.01013      .   S
    Zr9    O138      2.02349      .   S
    C137   O139      1.02007      .   S
    Zr8    O139      2.00710      .   S
    C137   O140      0.39437      .   S
    C20    O140      0.78098      .   S
    C141   O142      0.37753      .   S
    C18    O142      0.76500      .   S
    C141   O143      1.03591      .   S
    Zr11   O143      2.11877      .   S
