# CIF file generated by openbabel 2.4.90, see http://openbabel.sf.net
data_I
_chemical_name_common ''
_cell_length_a 13.172
_cell_length_b 13.948
_cell_length_c 16.991
_cell_angle_alpha 90.05
_cell_angle_beta 90.016
_cell_angle_gamma 90.246
_space_group_name_H-M_alt 'P 1'
_space_group_name_Hall 'P 1'
loop_
    _symmetry_equiv_pos_as_xyz
    x,y,z
loop_
    _atom_site_label
    _atom_site_type_symbol
    _atom_site_fract_x
    _atom_site_fract_y
    _atom_site_fract_z
    _atom_site_occupancy
    Zr0     Zr   0.42612   0.97961   0.40648   1.000
    Zr1     Zr   0.47619   0.90842   0.07322   1.000
    Zr2     Zr   0.57406   0.52009   0.90666   1.000
    Zr3     Zr   0.52398   0.59159   0.57310   1.000
    Zr4     Zr   0.92518   0.02009   0.09364   1.000
    Zr5     Zr   0.97779   0.09148   0.42671   1.000
    Zr6     Zr   0.07504   0.48014   0.59354   1.000
    Zr7     Zr   0.02236   0.40845   0.92681   1.000
    Zr8     Zr   0.57391   0.02037   0.59351   1.000
    Zr9     Zr   0.52384   0.09156   0.92677   1.000
    Zr10    Zr   0.42596   0.47989   0.09333   1.000
    Zr11    Zr   0.47604   0.40839   0.42689   1.000
    Zr12    Zr   0.07485   0.97989   0.90635   1.000
    Zr13    Zr   0.02223   0.90850   0.57328   1.000
    Zr14    Zr   0.92499   0.51984   0.40645   1.000
    Zr15    Zr   0.97767   0.59153   0.07318   1.000
    Zr16    Zr   0.25904   0.86026   0.50800   1.000
    Zr17    Zr   0.44160   0.19883   0.34841   1.000
    Zr18    Zr   0.15294   0.14990   0.33424   1.000
    Zr19    Zr   0.27552   0.11092   0.31793   1.000
    Zr20    Zr   0.56191   0.22927   0.63815   1.000
    Zr21    Zr   0.56716   0.33855   0.59124   1.000
    Zr22    Zr   0.74068   0.63890   0.00873   1.000
    Zr23    Zr   0.55831   0.30109   0.84854   1.000
    Zr24    Zr   0.84764   0.34991   0.83404   1.000
    Zr25    Zr   0.72476   0.38850   0.81779   1.000
    Zr26    Zr   0.43835   0.27027   0.13858   1.000
    Zr27    Zr   0.43434   0.16086   0.09110   1.000
    Zr28    Zr   0.75984   0.14018   0.99312   1.000
    Zr29    Zr   0.94115   0.80087   0.15159   1.000
    Zr30    Zr   0.65101   0.84937   0.16554   1.000
    Zr31    Zr   0.77383   0.88848   0.18224   1.000
    Zr32    Zr   0.06118   0.77130   0.86201   1.000
    Zr33    Zr   0.06692   0.66226   0.90899   1.000
    Zr34    Zr   0.23973   0.36064   0.49213   1.000
    Zr35    Zr   0.05839   0.69908   0.65177   1.000
    Zr36    Zr   0.34975   0.65063   0.66560   1.000
    Zr37    Zr   0.22673   0.61180   0.68236   1.000
    Zr38    Zr   0.93900   0.72913   0.36175   1.000
    Zr39    Zr   0.93422   0.83824   0.40931   1.000
    Zr40    Zr   0.74099   0.13972   0.49200   1.000
    Zr41    Zr   0.55842   0.80115   0.65158   1.000
    Zr42    Zr   0.84709   0.85008   0.66575   1.000
    Zr43    Zr   0.72451   0.88906   0.68206   1.000
    Zr44    Zr   0.43810   0.77071   0.36185   1.000
    Zr45    Zr   0.43285   0.66143   0.40876   1.000
    Zr46    Zr   0.25935   0.36107   0.99126   1.000
    Zr47    Zr   0.44171   0.69888   0.15145   1.000
    Zr48    Zr   0.15238   0.65007   0.16596   1.000
    Zr49    Zr   0.27526   0.61147   0.18221   1.000
    Zr50    Zr   0.56167   0.72971   0.86141   1.000
    Zr51    Zr   0.56568   0.83912   0.90889   1.000
    Zr52    Zr   0.24018   0.85981   0.00688   1.000
    Zr53    Zr   0.05887   0.19911   0.84840   1.000
    Zr54    Zr   0.34902   0.15062   0.83446   1.000
    Zr55    Zr   0.22619   0.11151   0.81776   1.000
    Zr56    Zr   0.93884   0.22868   0.13798   1.000
    Zr57    Zr   0.93310   0.33771   0.09100   1.000
    Zr58    Zr   0.76028   0.63934   0.50785   1.000
    Zr59    Zr   0.94162   0.30090   0.34822   1.000
    Zr60    Zr   0.65027   0.34935   0.33434   1.000
    Zr61    Zr   0.77329   0.38818   0.31763   1.000
    Zr62    Zr   0.06100   0.27085   0.63824   1.000
    Zr63    Zr   0.06579   0.16174   0.59068   1.000
    Zr64    Zr   0.46662   0.91506   0.24410   1.000
    Zr65    Zr   0.42201   0.01324   0.22031   1.000
    Zr66    Zr   0.20143   0.04652   0.40770   1.000
    Zr67    Zr   0.22421   0.92176   0.47998   1.000
    Zr68    Zr   0.53077   0.22017   0.52270   1.000
    Zr69    Zr   0.47051   0.19040   0.40759   1.000
    Zr70    Zr   0.53667   0.58357   0.74360   1.000
    Zr71    Zr   0.57856   0.48408   0.72000   1.000
    Zr72    Zr   0.79890   0.45327   0.90772   1.000
    Zr73    Zr   0.77569   0.57764   0.98045   1.000
    Zr74    Zr   0.47023   0.27957   0.02309   1.000
    Zr75    Zr   0.52980   0.30945   0.90784   1.000
    Zr76    Zr   0.96819   0.08478   0.25568   1.000
    Zr77    Zr   0.92248   0.98666   0.27948   1.000
    Zr78    Zr   0.70036   0.95337   0.09262   1.000
    Zr79    Zr   0.72440   0.07856   0.02089   1.000
    Zr80    Zr   0.03072   0.78031   0.97740   1.000
    Zr81    Zr   0.97015   0.80953   0.09245   1.000
    Zr82    Zr   0.03485   0.41601   0.75614   1.000
    Zr83    Zr   0.07820   0.51523   0.77972   1.000
    Zr84    Zr   0.30003   0.54669   0.59255   1.000
    Zr85    Zr   0.27542   0.42198   0.52023   1.000
    Zr86    Zr   0.97000   0.71987   0.47729   1.000
    Zr87    Zr   0.02981   0.69051   0.59247   1.000
    Zr88    Zr   0.53341   0.08492   0.75589   1.000
    Zr89    Zr   0.57800   0.98674   0.77968   1.000
    Zr90    Zr   0.79859   0.95346   0.59222   1.000
    Zr91    Zr   0.77582   0.07823   0.52002   1.000
    Zr92    Zr   0.46924   0.77981   0.47729   1.000
    Zr93    Zr   0.52951   0.80958   0.59240   1.000
    Zr94    Zr   0.46337   0.41641   0.25600   1.000
    Zr95    Zr   0.42146   0.51590   0.27999   1.000
    Zr96    Zr   0.20113   0.54671   0.09227   1.000
    Zr97    Zr   0.22433   0.42234   0.01950   1.000
    Zr98    Zr   0.52979   0.72040   0.97690   1.000
    Zr99    Zr   0.47023   0.69053   0.09210   1.000
    Zr100   Zr   0.03184   0.91520   0.74431   1.000
    Zr101   Zr   0.07754   0.01332   0.72051   1.000
    Zr102   Zr   0.29967   0.04661   0.90738   1.000
    Zr103   Zr   0.27562   0.92143   0.97911   1.000
    Zr104   Zr   0.96930   0.21967   0.02251   1.000
    Zr105   Zr   0.02987   0.19045   0.90754   1.000
    Zr106   Zr   0.96518   0.58397   0.24385   1.000
    Zr107   Zr   0.92182   0.48475   0.22027   1.000
    Zr108   Zr   0.69999   0.45329   0.40744   1.000
    Zr109   Zr   0.72460   0.57800   0.47970   1.000
    Zr110   Zr   0.03001   0.28011   0.52270   1.000
    Zr111   Zr   0.97021   0.30947   0.40752   1.000
    Zr112   Zr   0.27318   0.98009   0.42802   1.000
    Zr113   Zr   0.12906   0.94843   0.49208   1.000
    Zr114   Zr   0.11372   0.02964   0.44613   1.000
    Zr115   Zr   0.21759   0.12130   0.35776   1.000
    Zr116   Zr   0.52447   0.12363   0.51590   1.000
    Zr117   Zr   0.48502   0.10568   0.44100   1.000
    Zr118   Zr   0.49732   0.26411   0.45556   1.000
    Zr119   Zr   0.57129   0.26544   0.58621   1.000
    Zr120   Zr   0.72692   0.51934   0.92827   1.000
    Zr121   Zr   0.87094   0.55121   0.99243   1.000
    Zr122   Zr   0.88657   0.47032   0.94611   1.000
    Zr123   Zr   0.78302   0.37862   0.85744   1.000
    Zr124   Zr   0.47610   0.37617   0.01637   1.000
    Zr125   Zr   0.51511   0.39417   0.94139   1.000
    Zr126   Zr   0.50357   0.23574   0.95580   1.000
    Zr127   Zr   0.43029   0.23395   0.08653   1.000
    Zr128   Zr   0.77273   0.01988   0.07263   1.000
    Zr129   Zr   0.62901   0.05202   0.00870   1.000
    Zr130   Zr   0.61279   0.97061   0.05436   1.000
    Zr131   Zr   0.71590   0.87826   0.14220   1.000
    Zr132   Zr   0.02416   0.87676   0.98420   1.000
    Zr133   Zr   0.98439   0.89438   0.05891   1.000
    Zr134   Zr   0.99740   0.73605   0.04460   1.000
    Zr135   Zr   0.07139   0.73539   0.91396   1.000
    Zr136   Zr   0.22737   0.48062   0.57219   1.000
    Zr137   Zr   0.37093   0.44821   0.50823   1.000
    Zr138   Zr   0.38752   0.52927   0.55430   1.000
    Zr139   Zr   0.28484   0.62165   0.64252   1.000
    Zr140   Zr   0.97627   0.62336   0.48388   1.000
    Zr141   Zr   0.01554   0.60567   0.55878   1.000
    Zr142   Zr   0.00309   0.76401   0.54459   1.000
    Zr143   Zr   0.92981   0.76512   0.41382   1.000
    Zr144   Zr   0.72685   0.01989   0.57197   1.000
    Zr145   Zr   0.87097   0.05155   0.50791   1.000
    Zr146   Zr   0.88631   0.97035   0.55386   1.000
    Zr147   Zr   0.78244   0.87868   0.64224   1.000
    Zr148   Zr   0.47555   0.87635   0.48409   1.000
    Zr149   Zr   0.51501   0.89430   0.55893   1.000
    Zr150   Zr   0.50270   0.73587   0.54444   1.000
    Zr151   Zr   0.42872   0.73454   0.41370   1.000
    Zr152   Zr   0.27311   0.48063   0.07172   1.000
    Zr153   Zr   0.12909   0.44877   0.00756   1.000
    Zr154   Zr   0.11345   0.52966   0.05388   1.000
    Zr155   Zr   0.21700   0.62136   0.14256   1.000
    Zr156   Zr   0.52392   0.62381   0.98362   1.000
    Zr157   Zr   0.48491   0.60581   0.05860   1.000
    Zr158   Zr   0.49645   0.76424   0.04416   1.000
    Zr159   Zr   0.56973   0.76603   0.91346   1.000
    Zr160   Zr   0.22729   0.98011   0.92737   1.000
    Zr161   Zr   0.37101   0.94796   0.99129   1.000
    Zr162   Zr   0.38723   0.02937   0.94564   1.000
    Zr163   Zr   0.28412   0.12173   0.85770   1.000
    Zr164   Zr   0.97586   0.12322   0.01579   1.000
    Zr165   Zr   0.01563   0.10560   0.94108   1.000
    Zr166   Zr   0.00262   0.26393   0.95539   1.000
    Zr167   Zr   0.92863   0.26459   0.08603   1.000
    Zr168   Zr   0.77265   0.51937   0.42779   1.000
    Zr169   Zr   0.62909   0.55177   0.49170   1.000
    Zr170   Zr   0.61250   0.47071   0.44569   1.000
    Zr171   Zr   0.71518   0.37833   0.35747   1.000
    Zr172   Zr   0.02374   0.37662   0.51610   1.000
    Zr173   Zr   0.98448   0.39431   0.44121   1.000
    Zr174   Zr   0.99692   0.23596   0.45540   1.000
    Zr175   Zr   0.07019   0.23486   0.58617   1.000
    Zr176   Zr   0.47524   0.89533   0.31670   1.000
    Zr177   Zr   0.39486   0.06704   0.27612   1.000
    Zr178   Zr   0.49342   0.85836   0.18976   1.000
    Zr179   Zr   0.41782   0.02951   0.14689   1.000
    Zr180   Zr   0.52902   0.60431   0.81610   1.000
    Zr181   Zr   0.60489   0.43012   0.77590   1.000
    Zr182   Zr   0.51096   0.64073   0.68928   1.000
    Zr183   Zr   0.58169   0.46721   0.64668   1.000
    Zr184   Zr   0.97688   0.10451   0.18307   1.000
    Zr185   Zr   0.89348   0.93329   0.22375   1.000
    Zr186   Zr   0.99562   0.14144   0.31005   1.000
    Zr187   Zr   0.91949   0.96997   0.35280   1.000
    Zr188   Zr   0.02692   0.39551   0.68360   1.000
    Zr189   Zr   0.10678   0.56828   0.72371   1.000
    Zr190   Zr   0.00845   0.35898   0.81049   1.000
    Zr191   Zr   0.08002   0.53290   0.85294   1.000
    Zr192   Zr   0.52478   0.10464   0.68329   1.000
    Zr193   Zr   0.60517   0.93294   0.72387   1.000
    Zr194   Zr   0.50660   0.14161   0.81020   1.000
    Zr195   Zr   0.58221   0.97047   0.85310   1.000
    Zr196   Zr   0.47101   0.39566   0.18389   1.000
    Zr197   Zr   0.39515   0.56986   0.22400   1.000
    Zr198   Zr   0.48906   0.35925   0.31071   1.000
    Zr199   Zr   0.41834   0.53277   0.35331   1.000
    Zr200   Zr   0.02314   0.89548   0.81692   1.000
    Zr201   Zr   0.10655   0.06669   0.77620   1.000
    Zr202   Zr   0.00440   0.85854   0.68994   1.000
    Zr203   Zr   0.08054   0.03001   0.64713   1.000
    Zr204   Zr   0.97310   0.60448   0.31600   1.000
    Zr205   Zr   0.89325   0.43170   0.27628   1.000
    Zr206   Zr   0.99158   0.64100   0.18950   1.000
    Zr207   Zr   0.92000   0.46708   0.14705   1.000
    O208    O    0.25790   0.89062   0.99299   1.000
    O209    O    0.17671   0.43555   0.01353   1.000
    O210    O    0.12127   0.48921   0.03072   1.000
    O211    O    0.07572   0.42861   0.96718   1.000
    O212    O    0.67671   0.06529   0.01479   1.000
    O213    O    0.62090   0.01131   0.03153   1.000
    O214    O    0.57642   0.07179   0.96773   1.000
    O215    O    0.75819   0.60827   0.99459   1.000
    O216    O    0.97258   0.17144   0.01915   1.000
    O217    O    0.95052   0.07166   0.05472   1.000
    O218    O    0.99575   0.11441   0.97844   1.000
    O219    O    0.47317   0.32787   0.01973   1.000
    O220    O    0.45103   0.42803   0.05485   1.000
    O221    O    0.49561   0.38517   0.97888   1.000
    O222    O    0.24872   0.45149   0.04561   1.000
    O223    O    0.24184   0.39171   0.00538   1.000
    O224    O    0.74857   0.04922   0.04676   1.000
    O225    O    0.74212   0.10937   0.00701   1.000
    O226    O    0.94897   0.24213   0.05427   1.000
    O227    O    0.98596   0.24180   0.98895   1.000
    O228    O    0.45026   0.25676   0.05481   1.000
    O229    O    0.48690   0.25766   0.98945   1.000
    O230    O    0.48632   0.83633   0.05869   1.000
    O231    O    0.48334   0.72738   0.06813   1.000
    O232    O    0.51312   0.74232   0.01053   1.000
    O233    O    0.98754   0.66379   0.05889   1.000
    O234    O    0.98378   0.77279   0.06853   1.000
    O235    O    0.01406   0.75818   0.01100   1.000
    O236    O    0.04556   0.56059   0.06353   1.000
    O237    O    0.15729   0.53818   0.07308   1.000
    O238    O    0.54449   0.93951   0.06379   1.000
    O239    O    0.65657   0.96199   0.07349   1.000
    O240    O    0.47757   0.64817   0.07535   1.000
    O241    O    0.45544   0.54285   0.07597   1.000
    O242    O    0.50442   0.61481   0.02111   1.000
    O243    O    0.97727   0.85196   0.07568   1.000
    O244    O    0.95478   0.95724   0.07627   1.000
    O245    O    0.00427   0.88557   0.02155   1.000
    O246    O    0.23712   0.51367   0.08199   1.000
    O247    O    0.34953   0.48026   0.08253   1.000
    O248    O    0.73654   0.98663   0.08263   1.000
    O249    O    0.84895   0.01999   0.08314   1.000
    O250    O    0.94884   0.52930   0.11012   1.000
    O251    O    0.98462   0.61626   0.13134   1.000
    O252    O    0.92430   0.57137   0.03281   1.000
    O253    O    0.44701   0.96896   0.11005   1.000
    O254    O    0.48480   0.88339   0.13149   1.000
    O255    O    0.42360   0.92819   0.03226   1.000
    O256    O    0.93086   0.30115   0.08851   1.000
    O257    O    0.93373   0.24663   0.11200   1.000
    O258    O    0.43231   0.19741   0.08881   1.000
    O259    O    0.43432   0.25211   0.11255   1.000
    O260    O    0.45597   0.69470   0.12178   1.000
    O261    O    0.20907   0.58403   0.11742   1.000
    O262    O    0.95565   0.80520   0.12202   1.000
    O263    O    0.70813   0.91582   0.11741   1.000
    O264    O    0.44849   0.43778   0.13861   1.000
    O265    O    0.95103   0.06230   0.13836   1.000
    O266    O    0.68346   0.86381   0.15387   1.000
    O267    O    0.74487   0.88337   0.16222   1.000
    O268    O    0.18469   0.63571   0.15426   1.000
    O269    O    0.24613   0.61641   0.16239   1.000
    O270    O    0.41992   0.02137   0.18360   1.000
    O271    O    0.92091   0.47591   0.18366   1.000
    O272    O    0.97254   0.09464   0.21938   1.000
    O273    O    0.46719   0.40604   0.21995   1.000
    O274    O    0.97838   0.61248   0.21668   1.000
    O275    O    0.48002   0.88671   0.21693   1.000
    O276    O    0.94350   0.53436   0.23206   1.000
    O277    O    0.90754   0.45823   0.24827   1.000
    O278    O    0.44432   0.96415   0.23220   1.000
    O279    O    0.40844   0.04014   0.24821   1.000
    O280    O    0.90798   0.95998   0.25161   1.000
    O281    O    0.40830   0.54288   0.25200   1.000
    O282    O    0.96914   0.59422   0.27993   1.000
    O283    O    0.47093   0.90520   0.28040   1.000
    O284    O    0.94534   0.03572   0.26758   1.000
    O285    O    0.98191   0.11311   0.28286   1.000
    O286    O    0.44241   0.46615   0.26800   1.000
    O287    O    0.47621   0.38783   0.28336   1.000
    O288    O    0.92099   0.97832   0.31614   1.000
    O289    O    0.41990   0.52433   0.31665   1.000
    O290    O    0.98671   0.11646   0.36838   1.000
    O291    O    0.48255   0.38382   0.36880   1.000
    O292    O    0.94905   0.56216   0.36122   1.000
    O293    O    0.45068   0.93747   0.36159   1.000
    O294    O    0.74424   0.38326   0.33755   1.000
    O295    O    0.24655   0.11611   0.33785   1.000
    O296    O    0.18526   0.13560   0.34600   1.000
    O297    O    0.68273   0.36384   0.34591   1.000
    O298    O    0.95592   0.30518   0.37787   1.000
    O299    O    0.45605   0.19461   0.37800   1.000
    O300    O    0.94864   0.03072   0.38975   1.000
    O301    O    0.44719   0.47058   0.39010   1.000
    O302    O    0.70759   0.41581   0.38246   1.000
    O303    O    0.20951   0.08391   0.38273   1.000
    O304    O    0.93441   0.74713   0.38778   1.000
    O305    O    0.43341   0.75263   0.38778   1.000
    O306    O    0.84882   0.51960   0.41712   1.000
    O307    O    0.95473   0.45707   0.42383   1.000
    O308    O    0.95063   0.57160   0.44516   1.000
    O309    O    0.34965   0.97985   0.41725   1.000
    O310    O    0.45557   0.04265   0.42374   1.000
    O311    O    0.45083   0.92798   0.44529   1.000
    O312    O    0.73632   0.48633   0.41762   1.000
    O313    O    0.65625   0.46200   0.42657   1.000
    O314    O    0.97734   0.35189   0.42436   1.000
    O315    O    0.98356   0.27272   0.43146   1.000
    O316    O    0.47776   0.14804   0.42430   1.000
    O317    O    0.48391   0.22726   0.43157   1.000
    O318    O    0.23730   0.01330   0.41786   1.000
    O319    O    0.15757   0.03808   0.42692   1.000
    O320    O    0.43078   0.69799   0.41123   1.000
    O321    O    0.93202   0.80168   0.41157   1.000
    O322    O    0.44898   0.75718   0.44550   1.000
    O323    O    0.94991   0.74250   0.44556   1.000
    O324    O    0.04576   0.06056   0.43642   1.000
    O325    O    0.98736   0.16372   0.44106   1.000
    O326    O    0.92438   0.07151   0.46731   1.000
    O327    O    0.54427   0.43955   0.43629   1.000
    O328    O    0.48668   0.33625   0.44123   1.000
    O329    O    0.42349   0.42830   0.46756   1.000
    O330    O    0.74863   0.54868   0.45375   1.000
    O331    O    0.24869   0.95092   0.45400   1.000
    O332    O    0.50474   0.11466   0.47845   1.000
    O333    O    0.00411   0.38546   0.47865   1.000
    O334    O    0.62080   0.51124   0.46870   1.000
    O335    O    0.12139   0.98903   0.46911   1.000
    O336    O    0.01346   0.25804   0.48905   1.000
    O337    O    0.51405   0.24214   0.48913   1.000
    O338    O    0.47240   0.82808   0.48069   1.000
    O339    O    0.48597   0.75784   0.51087   1.000
    O340    O    0.97313   0.67162   0.48059   1.000
    O341    O    0.98655   0.74194   0.51094   1.000
    O342    O    0.67684   0.56489   0.48570   1.000
    O343    O    0.74244   0.60867   0.49377   1.000
    O344    O    0.17663   0.93509   0.48603   1.000
    O345    O    0.24162   0.89101   0.49399   1.000
    O346    O    0.99590   0.61452   0.52133   1.000
    O347    O    0.49528   0.88532   0.52151   1.000
    O348    O    0.57654   0.57168   0.53240   1.000
    O349    O    0.75840   0.10897   0.50601   1.000
    O350    O    0.07565   0.92847   0.53268   1.000
    O351    O    0.25758   0.39132   0.50618   1.000
    O352    O    0.82339   0.06489   0.51397   1.000
    O353    O    0.87864   0.01095   0.53089   1.000
    O354    O    0.32318   0.43510   0.51423   1.000
    O355    O    0.37922   0.48874   0.53127   1.000
    O356    O    0.52762   0.17190   0.51930   1.000
    O357    O    0.54919   0.07200   0.55471   1.000
    O358    O    0.02688   0.32836   0.51940   1.000
    O359    O    0.04939   0.42838   0.55482   1.000
    O360    O    0.75133   0.04906   0.54600   1.000
    O361    O    0.25139   0.45130   0.54621   1.000
    O362    O    0.05010   0.25748   0.55444   1.000
    O363    O    0.55103   0.24280   0.55446   1.000
    O364    O    0.51334   0.66373   0.55877   1.000
    O365    O    0.51610   0.77272   0.56842   1.000
    O366    O    0.01266   0.83626   0.55894   1.000
    O367    O    0.01645   0.72726   0.56853   1.000
    O368    O    0.95427   0.93942   0.56357   1.000
    O369    O    0.84245   0.96190   0.57304   1.000
    O370    O    0.45575   0.56043   0.56370   1.000
    O371    O    0.34377   0.53798   0.57343   1.000
    O372    O    0.02267   0.64809   0.57563   1.000
    O373    O    0.04529   0.54291   0.57616   1.000
    O374    O    0.52226   0.85194   0.57566   1.000
    O375    O    0.54446   0.95733   0.57622   1.000
    O376    O    0.76272   0.98668   0.58209   1.000
    O377    O    0.65038   0.02013   0.58274   1.000
    O378    O    0.26370   0.51365   0.58237   1.000
    O379    O    0.15120   0.48038   0.58286   1.000
    O380    O    0.55284   0.52940   0.60989   1.000
    O381    O    0.51747   0.61616   0.63119   1.000
    O382    O    0.05139   0.96925   0.61021   1.000
    O383    O    0.01331   0.88352   0.63161   1.000
    O384    O    0.06799   0.19830   0.58843   1.000
    O385    O    0.06560   0.25285   0.61220   1.000
    O386    O    0.56923   0.30199   0.58873   1.000
    O387    O    0.56660   0.24735   0.61218   1.000
    O388    O    0.79052   0.91607   0.61723   1.000
    O389    O    0.54397   0.80537   0.62199   1.000
    O390    O    0.04410   0.69480   0.62212   1.000
    O391    O    0.29243   0.58417   0.61753   1.000
    O392    O    0.54934   0.06251   0.63840   1.000
    O393    O    0.05098   0.43783   0.63857   1.000
    O394    O    0.81476   0.86438   0.65399   1.000
    O395    O    0.75348   0.88387   0.66215   1.000
    O396    O    0.31729   0.63614   0.65406   1.000
    O397    O    0.25578   0.61672   0.66244   1.000
    O398    O    0.58013   0.47565   0.68334   1.000
    O399    O    0.07904   0.02166   0.68382   1.000
    O400    O    0.52910   0.09478   0.71959   1.000
    O401    O    0.03089   0.40576   0.71987   1.000
    O402    O    0.52381   0.61215   0.71644   1.000
    O403    O    0.01812   0.88687   0.71713   1.000
    O404    O    0.55761   0.53383   0.73180   1.000
    O405    O    0.59172   0.45710   0.74795   1.000
    O406    O    0.05469   0.96426   0.73241   1.000
    O407    O    0.09205   0.04000   0.74835   1.000
    O408    O    0.09249   0.54176   0.75172   1.000
    O409    O    0.59159   0.95984   0.75178   1.000
    O410    O    0.53284   0.59394   0.77985   1.000
    O411    O    0.02749   0.90534   0.78061   1.000
    O412    O    0.55571   0.03583   0.76778   1.000
    O413    O    0.52001   0.11327   0.78304   1.000
    O414    O    0.05653   0.46562   0.76793   1.000
    O415    O    0.02165   0.38750   0.78332   1.000
    O416    O    0.58011   0.97861   0.81639   1.000
    O417    O    0.07911   0.52407   0.81633   1.000
    O418    O    0.51522   0.11659   0.86849   1.000
    O419    O    0.01540   0.38372   0.86865   1.000
    O420    O    0.55154   0.56220   0.86138   1.000
    O421    O    0.04899   0.93768   0.86164   1.000
    O422    O    0.25516   0.11662   0.83773   1.000
    O423    O    0.75389   0.38356   0.83762   1.000
    O424    O    0.81533   0.36426   0.84574   1.000
    O425    O    0.31657   0.13618   0.84608   1.000
    O426    O    0.04437   0.19478   0.87797   1.000
    O427    O    0.54405   0.30527   0.87819   1.000
    O428    O    0.05119   0.47067   0.88988   1.000
    O429    O    0.55303   0.03102   0.88994   1.000
    O430    O    0.79096   0.41595   0.88258   1.000
    O431    O    0.29189   0.08417   0.88254   1.000
    O432    O    0.56570   0.74787   0.88744   1.000
    O433    O    0.06628   0.75334   0.88799   1.000
    O434    O    0.15107   0.98000   0.91686   1.000
    O435    O    0.04524   0.04274   0.92371   1.000
    O436    O    0.04950   0.92832   0.94528   1.000
    O437    O    0.65049   0.51971   0.91747   1.000
    O438    O    0.54459   0.45713   0.92402   1.000
    O439    O    0.54899   0.57195   0.94514   1.000
    O440    O    0.26348   0.01336   0.91738   1.000
    O441    O    0.34345   0.03799   0.92651   1.000
    O442    O    0.02275   0.14802   0.92431   1.000
    O443    O    0.01624   0.22719   0.93146   1.000
    O444    O    0.76291   0.48631   0.91800   1.000
    O445    O    0.84273   0.46180   0.92692   1.000
    O446    O    0.52245   0.35181   0.92461   1.000
    O447    O    0.51668   0.27260   0.93182   1.000
    O448    O    0.56770   0.80257   0.91118   1.000
    O449    O    0.06916   0.69883   0.91148   1.000
    O450    O    0.54976   0.74322   0.94518   1.000
    O451    O    0.05105   0.75785   0.94568   1.000
    O452    O    0.45554   0.06047   0.93621   1.000
    O453    O    0.51371   0.16365   0.94129   1.000
    O454    O    0.95447   0.43939   0.93646   1.000
    O455    O    0.01249   0.33619   0.94110   1.000
    O456    O    0.25146   0.95077   0.95324   1.000
    O457    O    0.75131   0.54849   0.95436   1.000
    O458    O    0.37912   0.98867   0.96847   1.000
    O459    O    0.87876   0.51077   0.96927   1.000
    O460    O    0.52686   0.67211   0.98026   1.000
    O461    O    0.02744   0.82854   0.98080   1.000
    O462    O    0.32332   0.93470   0.98520   1.000
    O463    O    0.82332   0.56443   0.98644   1.000
loop_
    _geom_bond_atom_site_label_1
    _geom_bond_atom_site_label_2
    _geom_bond_distance
    _geom_bond_site_symmetry_2
    _ccdc_geom_bond_type
    Zr52   O208      0.54238  1_554   S
    Zr103  O208      0.54238      .   S
    Zr153  O209      0.66238      .   S
    Zr97   O209      0.66238      .   S
    Zr153  O210      0.69559      .   S
    Zr154  O210      0.69559      .   S
    Zr153  O211      1.02050  1_554   S
    Zr7    O211      1.02050      .   S
    Zr129  O212      0.66228      .   S
    Zr79   O212      0.66228      .   S
    Zr129  O213      0.69579      .   S
    Zr130  O213      0.69579  1_565   S
    Zr129  O214      1.02077  1_554   S
    Zr9    O214      1.02077      .   S
    Zr22   O215      0.54236  1_554   S
    Zr73   O215      0.54236      .   S
    Zr164  O216      0.67659      .   S
    Zr104  O216      0.67659      .   S
    Zr164  O217      1.03197      .   S
    Zr4    O217      1.03197      .   S
    Zr164  O218      0.69768  1_554   S
    Zr165  O218      0.69768  1_455   S
    Zr124  O219      0.67704      .   S
    Zr74   O219      0.67704      .   S
    Zr124  O220      1.03012      .   S
    Zr10   O220      1.03012      .   S
    Zr124  O221      0.69821  1_554   S
    Zr125  O221      0.69821      .   S
    Zr97   O222      0.68100      .   S
    Zr152  O222      0.68100      .   S
    Zr97   O223      0.54222      .   S
    Zr46   O223      0.54222  1_556   S
    Zr79   O224      0.68068      .   S
    Zr128  O224      0.68068      .   S
    Zr79   O225      0.54238      .   S
    Zr28   O225      0.54238  1_556   S
    Zr104  O226      0.67942      .   S
    Zr167  O226      0.67942      .   S
    Zr104  O227      0.68436  1_554   S
    Zr166  O227      0.68436  1_455   S
    Zr74   O228      0.67866      .   S
    Zr127  O228      0.67866      .   S
    Zr74   O229      0.68470  1_554   S
    Zr126  O229      0.68470      .   S
    Zr158  O230      1.04427      .   S
    Zr1    O230      1.04427      .   S
    Zr158  O231      0.67796      .   S
    Zr99   O231      0.67796      .   S
    Zr158  O232      0.68448      .   S
    Zr98   O232      0.68448  1_556   S
    Zr134  O233      1.04455      .   S
    Zr15   O233      1.04455      .   S
    Zr134  O234      0.67862      .   S
    Zr81   O234      0.67862      .   S
    Zr134  O235      0.68492  1_655   S
    Zr80   O235      0.68492  1_556   S
    Zr154  O236      1.00801      .   S
    Zr15   O236      1.00801  1_655   S
    Zr154  O237      0.67318      .   S
    Zr96   O237      0.67318      .   S
    Zr130  O238      1.00999      .   S
    Zr1    O238      1.00999      .   S
    Zr130  O239      0.67322      .   S
    Zr78   O239      0.67322      .   S
    Zr157  O240      0.66303      .   S
    Zr99   O240      0.66303      .   S
    Zr157  O241      1.00325      .   S
    Zr10   O241      1.00325      .   S
    Zr157  O242      0.69821      .   S
    Zr156  O242      0.69821  1_556   S
    Zr133  O243      0.66329      .   S
    Zr81   O243      0.66329      .   S
    Zr133  O244      1.00516      .   S
    Zr4    O244      1.00516  1_545   S
    Zr133  O245      0.69768  1_655   S
    Zr132  O245      0.69768  1_556   S
    Zr152  O246      0.68504      .   S
    Zr96   O246      0.68504      .   S
    Zr152  O247      1.02329      .   S
    Zr10   O247      1.02329      .   S
    Zr128  O248      0.68517  1_545   S
    Zr78   O248      0.68517      .   S
    Zr128  O249      1.01970      .   S
    Zr4    O249      1.01970      .   S
    Zr15   O250      1.13561      .   S
    Zr207  O250      1.13561      .   S
    Zr15   O251      1.05025      .   S
    Zr206  O251      1.05025      .   S
    Zr15   O252      1.02051      .   S
    Zr121  O252      1.02051  1_556   S
    Zr1    O253      1.12009      .   S
    Zr179  O253      1.12009  1_545   S
    Zr1    O254      1.05634      .   S
    Zr178  O254      1.05634      .   S
    Zr1    O255      1.02079      .   S
    Zr161  O255      1.02079  1_556   S
    Zr167  O256      0.51241      .   S
    Zr57   O256      0.51241      .   S
    Zr167  O257      0.51219      .   S
    Zr56   O257      0.51219      .   S
    Zr127  O258      0.51204      .   S
    Zr27   O258      0.51204      .   S
    Zr127  O259      0.51204      .   S
    Zr26   O259      0.51204      .   S
    Zr99   O260      0.54128      .   S
    Zr47   O260      0.54128      .   S
    Zr96   O261      0.68089      .   S
    Zr155  O261      0.68089      .   S
    Zr81   O262      0.54090      .   S
    Zr29   O262      0.54090      .   S
    Zr78   O263      0.68054      .   S
    Zr131  O263      0.68054      .   S
    Zr10   O264      1.01348      .   S
    Zr196  O264      1.01348      .   S
    Zr4    O265      1.01837      .   S
    Zr184  O265      1.01837      .   S
    Zr131  O266      0.51182      .   S
    Zr30   O266      0.51182      .   S
    Zr131  O267      0.51576      .   S
    Zr31   O267      0.51576      .   S
    Zr155  O268      0.51131      .   S
    Zr48   O268      0.51131      .   S
    Zr155  O269      0.51539      .   S
    Zr49   O269      0.51539      .   S
    Zr179  O270      0.63469      .   S
    Zr65   O270      0.63469      .   S
    Zr207  O271      0.63413      .   S
    Zr107  O271      0.63413      .   S
    Zr184  O272      0.63468      .   S
    Zr76   O272      0.63468      .   S
    Zr196  O273      0.63141      .   S
    Zr94   O273      0.63141      .   S
    Zr206  O274      0.63354      .   S
    Zr106  O274      0.63354      .   S
    Zr178  O275      0.63320      .   S
    Zr64   O275      0.63320      .   S
    Zr107  O276      0.77361      .   S
    Zr106  O276      0.77361      .   S
    Zr107  O277      0.63124      .   S
    Zr205  O277      0.63124      .   S
    Zr65   O278      0.77324  1_545   S
    Zr64   O278      0.77324      .   S
    Zr65   O279      0.63077      .   S
    Zr177  O279      0.63077      .   S
    Zr185  O280      0.63104      .   S
    Zr77   O280      0.63104      .   S
    Zr197  O281      0.63148      .   S
    Zr95   O281      0.63148      .   S
    Zr106  O282      0.63139      .   S
    Zr204  O282      0.63139      .   S
    Zr64   O283      0.63463      .   S
    Zr176  O283      0.63463      .   S
    Zr76   O284      0.77347      .   S
    Zr77   O284      0.77347  1_565   S
    Zr76   O285      0.63339      .   S
    Zr186  O285      0.63339      .   S
    Zr94   O286      0.77493      .   S
    Zr95   O286      0.77493      .   S
    Zr94   O287      0.63595      .   S
    Zr198  O287      0.63595      .   S
    Zr77   O288      0.63407      .   S
    Zr187  O288      0.63407      .   S
    Zr95   O289      0.63416      .   S
    Zr199  O289      0.63416      .   S
    Zr186  O290      1.05726      .   S
    Zr5    O290      1.05726      .   S
    Zr198  O291      1.04819      .   S
    Zr11   O291      1.04819      .   S
    Zr204  O292      1.01914      .   S
    Zr14   O292      1.01914      .   S
    Zr176  O293      1.01629      .   S
    Zr0    O293      1.01629      .   S
    Zr61   O294      0.51539      .   S
    Zr171  O294      0.51539      .   S
    Zr19   O295      0.51531      .   S
    Zr115  O295      0.51531      .   S
    Zr18   O296      0.51162      .   S
    Zr115  O296      0.51162      .   S
    Zr60   O297      0.51125      .   S
    Zr171  O297      0.51125      .   S
    Zr59   O298      0.54093      .   S
    Zr111  O298      0.54093      .   S
    Zr17   O299      0.54089      .   S
    Zr69   O299      0.54089      .   S
    Zr187  O300      1.12066  1_565   S
    Zr5    O300      1.12066      .   S
    Zr199  O301      1.13631      .   S
    Zr11   O301      1.13631      .   S
    Zr171  O302      0.68090      .   S
    Zr108  O302      0.68090      .   S
    Zr115  O303      0.68062      .   S
    Zr66   O303      0.68062      .   S
    Zr38   O304      0.51214      .   S
    Zr143  O304      0.51214      .   S
    Zr44   O305      0.51142      .   S
    Zr151  O305      0.51142      .   S
    Zr14   O306      1.01955      .   S
    Zr168  O306      1.01955      .   S
    Zr14   O307      1.00520      .   S
    Zr173  O307      1.00520      .   S
    Zr14   O308      1.03200      .   S
    Zr140  O308      1.03200      .   S
    Zr0    O309      1.02382      .   S
    Zr112  O309      1.02382      .   S
    Zr0    O310      1.00306  1_565   S
    Zr117  O310      1.00306      .   S
    Zr0    O311      1.03055      .   S
    Zr148  O311      1.03055      .   S
    Zr108  O312      0.68497      .   S
    Zr168  O312      0.68497      .   S
    Zr108  O313      0.67304      .   S
    Zr170  O313      0.67304      .   S
    Zr111  O314      0.66335      .   S
    Zr173  O314      0.66335      .   S
    Zr111  O315      0.67844      .   S
    Zr174  O315      0.67844      .   S
    Zr69   O316      0.66296      .   S
    Zr117  O316      0.66296      .   S
    Zr69   O317      0.67848      .   S
    Zr118  O317      0.67848      .   S
    Zr66   O318      0.68534      .   S
    Zr112  O318      0.68534  1_565   S
    Zr66   O319      0.67362      .   S
    Zr114  O319      0.67362      .   S
    Zr45   O320      0.51238      .   S
    Zr151  O320      0.51238      .   S
    Zr39   O321      0.51207      .   S
    Zr143  O321      0.51207      .   S
    Zr151  O322      0.67945      .   S
    Zr92   O322      0.67945      .   S
    Zr143  O323      0.67921      .   S
    Zr86   O323      0.67921      .   S
    Zr5    O324      1.00893  1_655   S
    Zr114  O324      1.00893      .   S
    Zr5    O325      1.04361      .   S
    Zr174  O325      1.04361      .   S
    Zr5    O326      1.02338      .   S
    Zr145  O326      1.02338      .   S
    Zr11   O327      1.00923      .   S
    Zr170  O327      1.00923      .   S
    Zr11   O328      1.04550      .   S
    Zr118  O328      1.04550      .   S
    Zr11   O329      1.01756      .   S
    Zr137  O329      1.01756      .   S
    Zr168  O330      0.68025      .   S
    Zr109  O330      0.68025      .   S
    Zr112  O331      0.68090      .   S
    Zr67   O331      0.68090      .   S
    Zr117  O332      0.69826      .   S
    Zr116  O332      0.69826      .   S
    Zr173  O333      0.69800  1_655   S
    Zr172  O333      0.69800      .   S
    Zr170  O334      0.69526      .   S
    Zr169  O334      0.69526      .   S
    Zr114  O335      0.69584  1_545   S
    Zr113  O335      0.69584      .   S
    Zr174  O336      0.68427  1_655   S
    Zr110  O336      0.68427      .   S
    Zr118  O337      0.68456      .   S
    Zr68   O337      0.68456      .   S
    Zr92   O338      0.67676      .   S
    Zr148  O338      0.67676      .   S
    Zr92   O339      0.68463      .   S
    Zr150  O339      0.68463      .   S
    Zr86   O340      0.67684      .   S
    Zr140  O340      0.67684      .   S
    Zr86   O341      0.68428      .   S
    Zr142  O341      0.68428  1_455   S
    Zr109  O342      0.66225      .   S
    Zr169  O342      0.66225      .   S
    Zr109  O343      0.54257      .   S
    Zr58   O343      0.54257      .   S
    Zr67   O344      0.66249      .   S
    Zr113  O344      0.66249      .   S
    Zr67   O345      0.54239      .   S
    Zr16   O345      0.54239      .   S
    Zr140  O346      0.69808      .   S
    Zr141  O346      0.69808  1_455   S
    Zr148  O347      0.69780      .   S
    Zr149  O347      0.69780      .   S
    Zr169  O348      1.01788      .   S
    Zr3    O348      1.01788      .   S
    Zr40   O349      0.54239      .   S
    Zr91   O349      0.54239      .   S
    Zr113  O350      1.02339      .   S
    Zr13   O350      1.02339      .   S
    Zr34   O351      0.54237      .   S
    Zr85   O351      0.54237      .   S
    Zr145  O352      0.66250      .   S
    Zr91   O352      0.66250      .   S
    Zr145  O353      0.69583      .   S
    Zr146  O353      0.69583  1_565   S
    Zr137  O354      0.66225      .   S
    Zr85   O354      0.66225      .   S
    Zr137  O355      0.69552      .   S
    Zr138  O355      0.69552      .   S
    Zr116  O356      0.67676      .   S
    Zr68   O356      0.67676      .   S
    Zr116  O357      1.03056      .   S
    Zr8    O357      1.03056      .   S
    Zr172  O358      0.67686      .   S
    Zr110  O358      0.67686      .   S
    Zr172  O359      1.03208      .   S
    Zr6    O359      1.03208      .   S
    Zr91   O360      0.68084      .   S
    Zr144  O360      0.68084      .   S
    Zr85   O361      0.68053      .   S
    Zr136  O361      0.68053      .   S
    Zr110  O362      0.67920      .   S
    Zr175  O362      0.67920      .   S
    Zr68   O363      0.67890      .   S
    Zr119  O363      0.67890      .   S
    Zr150  O364      1.04549      .   S
    Zr3    O364      1.04549      .   S
    Zr150  O365      0.67843      .   S
    Zr93   O365      0.67843      .   S
    Zr142  O366      1.04361      .   S
    Zr13   O366      1.04361      .   S
    Zr142  O367      0.67844      .   S
    Zr87   O367      0.67844      .   S
    Zr146  O368      1.00894      .   S
    Zr13   O368      1.00894  1_455   S
    Zr146  O369      0.67334      .   S
    Zr90   O369      0.67334      .   S
    Zr138  O370      1.00925      .   S
    Zr3    O370      1.00925      .   S
    Zr138  O371      0.67305      .   S
    Zr84   O371      0.67305      .   S
    Zr141  O372      0.66335      .   S
    Zr87   O372      0.66335      .   S
    Zr141  O373      1.00521      .   S
    Zr6    O373      1.00521      .   S
    Zr149  O374      0.66319      .   S
    Zr93   O374      0.66319      .   S
    Zr149  O375      1.00321      .   S
    Zr8    O375      1.00321  1_545   S
    Zr144  O376      0.68519  1_545   S
    Zr90   O376      0.68519      .   S
    Zr144  O377      1.02382      .   S
    Zr8    O377      1.02382      .   S
    Zr136  O378      0.68497      .   S
    Zr84   O378      0.68497      .   S
    Zr136  O379      1.01954      .   S
    Zr6    O379      1.01954      .   S
    Zr3    O380      1.13632      .   S
    Zr183  O380      1.13632      .   S
    Zr3    O381      1.04819      .   S
    Zr182  O381      1.04819      .   S
    Zr13   O382      1.12040      .   S
    Zr203  O382      1.12040  1_545   S
    Zr13   O383      1.05725      .   S
    Zr202  O383      1.05725      .   S
    Zr175  O384      0.51207      .   S
    Zr63   O384      0.51207      .   S
    Zr175  O385      0.51215      .   S
    Zr62   O385      0.51215      .   S
    Zr119  O386      0.51244      .   S
    Zr21   O386      0.51244      .   S
    Zr119  O387      0.51209      .   S
    Zr20   O387      0.51209      .   S
    Zr90   O388      0.68105      .   S
    Zr147  O388      0.68105      .   S
    Zr93   O389      0.54089      .   S
    Zr41   O389      0.54089      .   S
    Zr87   O390      0.54093      .   S
    Zr35   O390      0.54093      .   S
    Zr84   O391      0.68090      .   S
    Zr139  O391      0.68090      .   S
    Zr8    O392      1.01629      .   S
    Zr192  O392      1.01629      .   S
    Zr6    O393      1.01663      .   S
    Zr188  O393      1.01663      .   S
    Zr147  O394      0.51159      .   S
    Zr42   O394      0.51159      .   S
    Zr147  O395      0.51525      .   S
    Zr43   O395      0.51525      .   S
    Zr139  O396      0.51108      .   S
    Zr36   O396      0.51108      .   S
    Zr139  O397      0.51540      .   S
    Zr37   O397      0.51540      .   S
    Zr183  O398      0.63416      .   S
    Zr71   O398      0.63416      .   S
    Zr203  O399      0.63457      .   S
    Zr101  O399      0.63457      .   S
    Zr192  O400      0.63463      .   S
    Zr88   O400      0.63463      .   S
    Zr188  O401      0.63460      .   S
    Zr82   O401      0.63460      .   S
    Zr182  O402      0.63353      .   S
    Zr70   O402      0.63353      .   S
    Zr202  O403      0.63339      .   S
    Zr100  O403      0.63339      .   S
    Zr71   O404      0.77407      .   S
    Zr70   O404      0.77407      .   S
    Zr71   O405      0.63091      .   S
    Zr181  O405      0.63091      .   S
    Zr101  O406      0.77347  1_545   S
    Zr100  O406      0.77347      .   S
    Zr101  O407      0.63078      .   S
    Zr201  O407      0.63078      .   S
    Zr189  O408      0.63125      .   S
    Zr83   O408      0.63125      .   S
    Zr193  O409      0.63078      .   S
    Zr89   O409      0.63078      .   S
    Zr70   O410      0.63463      .   S
    Zr180  O410      0.63463      .   S
    Zr100  O411      0.63468      .   S
    Zr200  O411      0.63468      .   S
    Zr88   O412      0.77323      .   S
    Zr89   O412      0.77323  1_565   S
    Zr88   O413      0.63302      .   S
    Zr194  O413      0.63302      .   S
    Zr82   O414      0.77360      .   S
    Zr83   O414      0.77360      .   S
    Zr82   O415      0.63354      .   S
    Zr190  O415      0.63354      .   S
    Zr89   O416      0.63468      .   S
    Zr195  O416      0.63468      .   S
    Zr83   O417      0.63412      .   S
    Zr191  O417      0.63412      .   S
    Zr194  O418      1.05658      .   S
    Zr9    O418      1.05658      .   S
    Zr190  O419      1.05025      .   S
    Zr7    O419      1.05025      .   S
    Zr180  O420      1.01348      .   S
    Zr2    O420      1.01348      .   S
    Zr200  O421      1.01838      .   S
    Zr12   O421      1.01838      .   S
    Zr55   O422      0.51519      .   S
    Zr163  O422      0.51519      .   S
    Zr25   O423      0.51539      .   S
    Zr123  O423      0.51539      .   S
    Zr24   O424      0.51131      .   S
    Zr123  O424      0.51131      .   S
    Zr54   O425      0.51149      .   S
    Zr163  O425      0.51149      .   S
    Zr53   O426      0.54090      .   S
    Zr105  O426      0.54090      .   S
    Zr23   O427      0.54089      .   S
    Zr75   O427      0.54089      .   S
    Zr191  O428      1.13561      .   S
    Zr7    O428      1.13561      .   S
    Zr195  O429      1.12008  1_565   S
    Zr9    O429      1.12008      .   S
    Zr123  O430      0.68085      .   S
    Zr72   O430      0.68085      .   S
    Zr163  O431      0.68109      .   S
    Zr102  O431      0.68109      .   S
    Zr50   O432      0.51204      .   S
    Zr159  O432      0.51204      .   S
    Zr32   O433      0.51219      .   S
    Zr135  O433      0.51219      .   S
    Zr12   O434      1.01970      .   S
    Zr160  O434      1.01970      .   S
    Zr12   O435      1.00517  1_565   S
    Zr165  O435      1.00517      .   S
    Zr12   O436      1.03199      .   S
    Zr132  O436      1.03199      .   S
    Zr2    O437      1.02329      .   S
    Zr120  O437      1.02329      .   S
    Zr2    O438      1.00325      .   S
    Zr125  O438      1.00325      .   S
    Zr2    O439      1.03013      .   S
    Zr156  O439      1.03013      .   S
    Zr102  O440      0.68517      .   S
    Zr160  O440      0.68517  1_565   S
    Zr102  O441      0.67323      .   S
    Zr162  O441      0.67323      .   S
    Zr105  O442      0.66329      .   S
    Zr165  O442      0.66329      .   S
    Zr105  O443      0.67862      .   S
    Zr166  O443      0.67862      .   S
    Zr72   O444      0.68504      .   S
    Zr120  O444      0.68504      .   S
    Zr72   O445      0.67319      .   S
    Zr122  O445      0.67319      .   S
    Zr75   O446      0.66322      .   S
    Zr125  O446      0.66322      .   S
    Zr75   O447      0.67807      .   S
    Zr126  O447      0.67807      .   S
    Zr51   O448      0.51204      .   S
    Zr159  O448      0.51204      .   S
    Zr33   O449      0.51241      .   S
    Zr135  O449      0.51241      .   S
    Zr159  O450      0.67866      .   S
    Zr98   O450      0.67866      .   S
    Zr135  O451      0.67888      .   S
    Zr80   O451      0.67888      .   S
    Zr9    O452      1.01001      .   S
    Zr162  O452      1.01001      .   S
    Zr9    O453      1.04422      .   S
    Zr126  O453      1.04422      .   S
    Zr7    O454      1.00801  1_455   S
    Zr122  O454      1.00801      .   S
    Zr7    O455      1.04455      .   S
    Zr166  O455      1.04455      .   S
    Zr160  O456      0.68069      .   S
    Zr103  O456      0.68069      .   S
    Zr120  O457      0.68078      .   S
    Zr73   O457      0.68078      .   S
    Zr162  O458      0.69574  1_545   S
    Zr161  O458      0.69574      .   S
    Zr122  O459      0.69560      .   S
    Zr121  O459      0.69560      .   S
    Zr98   O460      0.67704      .   S
    Zr156  O460      0.67704      .   S
    Zr80   O461      0.67664      .   S
    Zr132  O461      0.67664      .   S
    Zr103  O462      0.66227      .   S
    Zr161  O462      0.66227      .   S
    Zr73   O463      0.66244      .   S
    Zr121  O463      0.66244      .   S
