# CIF file generated by openbabel 2.4.90, see http://openbabel.sf.net
data_I
_chemical_name_common ''
_cell_length_a 7.639
_cell_length_b 12.824
_cell_length_c 12.929
_cell_angle_alpha 80.642
_cell_angle_beta 85.374
_cell_angle_gamma 85.506
_space_group_name_H-M_alt 'P 1'
_space_group_name_Hall 'P 1'
loop_
    _symmetry_equiv_pos_as_xyz
    x,y,z
loop_
    _atom_site_label
    _atom_site_type_symbol
    _atom_site_fract_x
    _atom_site_fract_y
    _atom_site_fract_z
    _atom_site_occupancy
    Zr0     Zr   0.43027   0.28405   0.22680   1.000
    Zr1     Zr   0.06784   0.77377   0.71581   1.000
    Zr2     Zr   0.56972   0.71593   0.77323   1.000
    Zr3     Zr   0.93216   0.22621   0.28422   1.000
    N4      N    0.75061   0.19479   0.80514   1.000
    N5      N    0.24939   0.80511   0.19493   1.000
    C6      C    0.80013   0.87973   0.72182   1.000
    O7      O    0.72197   0.82727   0.75138   1.000
    O8      O    0.89677   0.85866   0.70633   1.000
    O9      O    0.76255   0.97549   0.73480   1.000
    C10     C    0.89098   0.59336   0.78018   1.000
    O11     O    0.77292   0.62334   0.78020   1.000
    O12     O    0.86467   0.47428   0.79931   1.000
    O13     O    0.96999   0.64567   0.75793   1.000
    C14     C    0.39284   0.77923   0.59454   1.000
    O15     O    0.27381   0.77946   0.62436   1.000
    O16     O    0.47198   0.75745   0.64624   1.000
    O17     O    0.36553   0.79850   0.47521   1.000
    C18     C    0.29712   0.72343   0.87745   1.000
    O19     O    0.39496   0.70739   0.85657   1.000
    O20     O    0.26018   0.73596   0.97382   1.000
    O21     O    0.21919   0.75292   0.82579   1.000
    C22     C    0.10902   0.40662   0.21985   1.000
    O23     O    0.22707   0.37664   0.21983   1.000
    O24     O    0.03000   0.35431   0.24210   1.000
    O25     O    0.13533   0.52568   0.20073   1.000
    C26     C    0.60716   0.22075   0.40550   1.000
    O27     O    0.72619   0.22052   0.37567   1.000
    O28     O    0.63447   0.20146   0.52483   1.000
    O29     O    0.52802   0.24253   0.35379   1.000
    C30     C    0.19987   0.12025   0.27822   1.000
    O31     O    0.23745   0.02448   0.26524   1.000
    O32     O    0.10323   0.14132   0.29371   1.000
    O33     O    0.27802   0.17271   0.24865   1.000
    C34     C    0.70288   0.27654   0.12258   1.000
    O35     O    0.78081   0.24706   0.17424   1.000
    O36     O    0.73982   0.26400   0.02622   1.000
    O37     O    0.60503   0.29259   0.14346   1.000
loop_
    _geom_bond_atom_site_label_1
    _geom_bond_atom_site_label_2
    _geom_bond_distance
    _geom_bond_site_symmetry_2
    _ccdc_geom_bond_type
    C6     O7        0.94745      .   S
    Zr2    O7        1.88336      .   S
    C6     O8        0.78778      .   S
    Zr1    O8        1.63326  1_455   S
    C6     O9        1.27372      .   S
    N4     O9        3.08594  1_545   S
    C10    O11       0.95227      .   S
    Zr2    O11       1.87786      .   S
    C10    O12       1.53328      .   S
    N4     O12       3.74189      .   S
    C10    O13       0.93259      .   S
    Zr1    O13       1.84108  1_455   S
    C14    O15       0.95858      .   S
    Zr1    O15       1.88917      .   S
    C14    O16       0.93187      .   S
    Zr2    O16       1.84059      .   S
    C14    O17       1.55070      .   S
    N5     O17       3.78586      .   S
    C18    O19       0.79703      .   S
    Zr2    O19       1.64551      .   S
    C18    O20       1.28812      .   S
    N5     O20       3.12092  1_554   S
    C18    O21       0.94348      .   S
    Zr1    O21       1.87700      .   S
    C22    O23       0.95227      .   S
    Zr0    O23       1.87786      .   S
    C22    O24       0.93259      .   S
    Zr3    O24       1.84108  1_655   S
    C22    O25       1.53305      .   S
    N5     O25       3.74122      .   S
    C26    O27       0.95857      .   S
    Zr3    O27       1.88916      .   S
    C26    O28       1.55080      .   S
    N4     O28       3.78604      .   S
    C26    O29       0.93187      .   S
    Zr0    O29       1.84061      .   S
    C30    O31       1.27394      .   S
    N5     O31       3.08654  1_565   S
    C30    O32       0.78778      .   S
    Zr3    O32       1.63325  1_655   S
    C30    O33       0.94745      .   S
    Zr0    O33       1.88335      .   S
    C34    O35       0.94348      .   S
    Zr3    O35       1.87699      .   S
    C34    O36       1.28809      .   S
    N4     O36       3.12093  1_556   S
    C34    O37       0.79703      .   S
    Zr0    O37       1.64552      .   S
