# CIF file generated by openbabel 2.4.90, see http://openbabel.sf.net
data_I
_chemical_name_common ''
_cell_length_a 7.639
_cell_length_b 12.824
_cell_length_c 12.929
_cell_angle_alpha 80.642
_cell_angle_beta 85.374
_cell_angle_gamma 85.506
_space_group_name_H-M_alt 'P 1'
_space_group_name_Hall 'P 1'
loop_
    _symmetry_equiv_pos_as_xyz
    x,y,z
loop_
    _atom_site_label
    _atom_site_type_symbol
    _atom_site_fract_x
    _atom_site_fract_y
    _atom_site_fract_z
    _atom_site_occupancy
    Zr0     Zr   0.43027   0.28405   0.22680   1.000
    Zr1     Zr   0.06784   0.77377   0.71581   1.000
    Zr2     Zr   0.56972   0.71593   0.77323   1.000
    Zr3     Zr   0.93216   0.22621   0.28422   1.000
    Zr4     Zr   0.73918   0.28747   0.09830   1.000
    Zr5     Zr   0.90277   0.56717   0.79776   1.000
    Zr6     Zr   0.76348   0.90410   0.71094   1.000
    Zr7     Zr   0.59572   0.20335   0.43163   1.000
    Zr8     Zr   0.26081   0.71251   0.90173   1.000
    Zr9     Zr   0.09723   0.43281   0.20226   1.000
    Zr10    Zr   0.23652   0.09588   0.28910   1.000
    Zr11    Zr   0.40428   0.79663   0.56840   1.000
    Zr12    Zr   0.58411   0.33323   0.10188   1.000
    Zr13    Zr   0.78533   0.20894   0.16757   1.000
    Zr14    Zr   0.74000   0.59071   0.78721   1.000
    Zr15    Zr   0.03017   0.62219   0.75556   1.000
    Zr16    Zr   0.91898   0.90142   0.66586   1.000
    Zr17    Zr   0.71792   0.83368   0.78865   1.000
    Zr18    Zr   0.75828   0.21435   0.40748   1.000
    Zr19    Zr   0.46747   0.24456   0.37737   1.000
    Zr20    Zr   0.41589   0.66675   0.89815   1.000
    Zr21    Zr   0.21466   0.79104   0.83246   1.000
    Zr22    Zr   0.25999   0.40926   0.21281   1.000
    Zr23    Zr   0.96983   0.37779   0.24447   1.000
    Zr24    Zr   0.08102   0.09856   0.33417   1.000
    Zr25    Zr   0.28208   0.16630   0.21138   1.000
    Zr26    Zr   0.24172   0.78563   0.59255   1.000
    Zr27    Zr   0.53253   0.75542   0.62266   1.000
    O28     O    0.66165   0.31035   0.10009   1.000
    O29     O    0.76226   0.24820   0.13293   1.000
    O30     O    0.50719   0.30864   0.16434   1.000
    O31     O    0.85875   0.21758   0.22589   1.000
    O32     O    0.17861   0.42104   0.20754   1.000
    O33     O    0.03353   0.40530   0.22337   1.000
    O34     O    0.35617   0.22517   0.21909   1.000
    O35     O    0.25930   0.13109   0.25024   1.000
    O36     O    0.34513   0.34666   0.21981   1.000
    O37     O    0.44887   0.26430   0.30209   1.000
    O38     O    0.95099   0.30200   0.26434   1.000
    O39     O    0.00659   0.16238   0.30919   1.000
    O40     O    0.84522   0.22028   0.34585   1.000
    O41     O    0.15877   0.09722   0.31163   1.000
    O42     O    0.53160   0.22396   0.40450   1.000
    O43     O    0.67700   0.20885   0.41956   1.000
    O44     O    0.32300   0.79113   0.58047   1.000
    O45     O    0.46840   0.77602   0.59553   1.000
    O46     O    0.15478   0.77970   0.65418   1.000
    O47     O    0.55112   0.73568   0.69794   1.000
    O48     O    0.84123   0.90276   0.68840   1.000
    O49     O    0.99341   0.83760   0.69084   1.000
    O50     O    0.74070   0.86889   0.74979   1.000
    O51     O    0.04900   0.69798   0.73569   1.000
    O52     O    0.14125   0.78240   0.77414   1.000
    O53     O    0.96647   0.59468   0.77666   1.000
    O54     O    0.65486   0.65332   0.78022   1.000
    O55     O    0.64382   0.77481   0.78094   1.000
    O56     O    0.49281   0.69134   0.83569   1.000
    O57     O    0.82139   0.57894   0.79249   1.000
    O58     O    0.23774   0.75178   0.86709   1.000
    O59     O    0.33835   0.68963   0.89994   1.000
    N60     N    0.75061   0.19479   0.80514   1.000
    O61     O    0.83836   0.35519   0.81844   1.000
    O62     O    0.66178   0.18217   0.64417   1.000
    O63     O    0.72498   0.07124   0.74777   1.000
    O64     O    0.77676   0.25145   0.92985   1.000
    N65     N    0.24939   0.80511   0.19493   1.000
    O66     O    0.16164   0.64475   0.18160   1.000
    O67     O    0.22324   0.74849   0.07019   1.000
    O68     O    0.27502   0.92870   0.25227   1.000
    O69     O    0.33822   0.81777   0.35588   1.000
loop_
    _geom_bond_atom_site_label_1
    _geom_bond_atom_site_label_2
    _geom_bond_distance
    _geom_bond_site_symmetry_2
    _ccdc_geom_bond_type
    Zr4    O28       0.64048      .   S
    Zr12   O28       0.64048      .   S
    Zr4    O29       0.64077      .   S
    Zr13   O29       0.64077      .   S
    Zr12   O30       0.98312      .   S
    Zr0    O30       0.98312      .   S
    Zr13   O31       1.00024      .   S
    Zr3    O31       1.00024      .   S
    Zr9    O32       0.63461      .   S
    Zr22   O32       0.63461      .   S
    Zr9    O33       0.64021      .   S
    Zr23   O33       0.64021  1_655   S
    Zr25   O34       1.00043      .   S
    Zr0    O34       1.00043      .   S
    Zr25   O35       0.64109      .   S
    Zr10   O35       0.64109      .   S
    Zr22   O36       0.98988      .   S
    Zr0    O36       0.98988      .   S
    Zr0    O37       0.98401      .   S
    Zr19   O37       0.98401      .   S
    Zr23   O38       0.98287      .   S
    Zr3    O38       0.98287      .   S
    Zr3    O39       0.98400  1_655   S
    Zr24   O39       0.98400      .   S
    Zr3    O40       0.99231      .   S
    Zr18   O40       0.99231      .   S
    Zr10   O41       0.64037      .   S
    Zr24   O41       0.64037      .   S
    Zr19   O42       0.64038      .   S
    Zr7    O42       0.64038      .   S
    Zr18   O43       0.63441      .   S
    Zr7    O43       0.63441      .   S
    Zr11   O44       0.63442      .   S
    Zr26   O44       0.63442      .   S
    Zr11   O45       0.64038      .   S
    Zr27   O45       0.64038      .   S
    Zr26   O46       0.99231      .   S
    Zr1    O46       0.99231      .   S
    Zr27   O47       0.98400      .   S
    Zr2    O47       0.98400      .   S
    Zr16   O48       0.64037      .   S
    Zr6    O48       0.64037      .   S
    Zr16   O49       0.98399      .   S
    Zr1    O49       0.98399  1_455   S
    Zr6    O50       0.64110      .   S
    Zr17   O50       0.64110      .   S
    Zr1    O51       0.98287      .   S
    Zr15   O51       0.98287      .   S
    Zr1    O52       1.00025      .   S
    Zr21   O52       1.00025      .   S
    Zr15   O53       0.64020  1_455   S
    Zr5    O53       0.64020      .   S
    Zr2    O54       0.98988      .   S
    Zr14   O54       0.98988      .   S
    Zr2    O55       1.00043      .   S
    Zr17   O55       1.00043      .   S
    Zr2    O56       0.98312      .   S
    Zr20   O56       0.98312      .   S
    Zr14   O57       0.63460      .   S
    Zr5    O57       0.63460      .   S
    Zr21   O58       0.64077      .   S
    Zr8    O58       0.64077      .   S
    Zr20   O59       0.64049      .   S
    Zr8    O59       0.64049      .   S
    N60    O61       2.24941      .   S
    Zr5    O61       2.76687      .   S
    N60    O62       2.27429      .   S
    Zr7    O62       2.79977      .   S
    N60    O63       1.88495      .   S
    Zr6    O63       2.26233  1_565   S
    N60    O64       1.90356      .   S
    Zr4    O64       2.29006  1_554   S
    N65    O66       2.24899      .   S
    Zr9    O66       2.76643      .   S
    N65    O67       1.90350      .   S
    Zr8    O67       2.29011  1_556   S
    N65    O68       1.88530      .   S
    Zr10   O68       2.26275  1_545   S
    N65    O69       2.27422      .   S
    Zr11   O69       2.79961      .   S
