# CIF file generated by openbabel 2.4.90, see http://openbabel.sf.net
data_I
_chemical_name_common ''
_cell_length_a 18.448
_cell_length_b 12.012
_cell_length_c 12.576
_cell_angle_alpha 79.494
_cell_angle_beta 74.765
_cell_angle_gamma 78.175
_space_group_name_H-M_alt 'P 1'
_space_group_name_Hall 'P 1'
loop_
    _symmetry_equiv_pos_as_xyz
    x,y,z
loop_
    _atom_site_label
    _atom_site_type_symbol
    _atom_site_fract_x
    _atom_site_fract_y
    _atom_site_fract_z
    _atom_site_occupancy
    Zn0     Zn   0.64370   0.74303   0.90286   1.000
    Zn1     Zn   0.35632   0.25693   0.09715   1.000
    Zn2     Zn   0.85632   0.25693   0.09715   1.000
    Zn3     Zn   0.00000   1.00000   0.00000   1.000
    Zn4     Zn   0.50001   1.00000   0.00000   1.000
    Zn5     Zn   0.14370   0.74303   0.90286   1.000
