# CIF file generated by openbabel 2.4.90, see http://openbabel.sf.net
data_I
_chemical_name_common ''
_cell_length_a 18.448
_cell_length_b 12.012
_cell_length_c 12.576
_cell_angle_alpha 79.494
_cell_angle_beta 74.765
_cell_angle_gamma 78.175
_space_group_name_H-M_alt 'P 1'
_space_group_name_Hall 'P 1'
loop_
    _symmetry_equiv_pos_as_xyz
    x,y,z
loop_
    _atom_site_label
    _atom_site_type_symbol
    _atom_site_fract_x
    _atom_site_fract_y
    _atom_site_fract_z
    _atom_site_occupancy
    N0      N    0.50001   0.49998   0.50000   1.000
    N1      N    0.99939   0.49998   0.49994   1.000
    N2      N    0.97553   0.77389   0.87968   1.000
    N3      N    0.47553   0.77389   0.87968   1.000
    N4      N    0.02448   0.22609   0.12033   1.000
    N5      N    0.52449   0.22609   0.12031   1.000
    N6      N    0.75002   0.99998   0.99996   1.000
    N7      N    0.25001   0.99998   0.00000   1.000
    Zr8     Zr   0.14370   0.74303   0.90286   1.000
    O9      O    0.10590   0.66760   0.81958   1.000
    O10     O    0.09117   0.74992   0.88837   1.000
    O11     O    0.24311   0.67876   0.78466   1.000
    O12     O    0.16816   0.82762   0.93278   1.000
    Zr13    Zr   0.64370   0.74303   0.90286   1.000
    O14     O    0.66816   0.82762   0.93277   1.000
    O15     O    0.74296   0.67876   0.78464   1.000
    O16     O    0.60606   0.66760   0.81959   1.000
    O17     O    0.59117   0.74992   0.88837   1.000
    Zr18    Zr   0.00000   1.00000   0.00000   1.000
    O19     O    0.01079   0.07156   0.03821   1.000
    O20     O    0.99823   0.86198   0.14378   1.000
    O21     O    0.00147   0.13800   0.85618   1.000
    O22     O    0.98922   0.92843   0.96179   1.000
    Zr23    Zr   0.85632   0.25693   0.09715   1.000
    O24     O    0.83187   0.17234   0.06722   1.000
    O25     O    0.89381   0.33236   0.18040   1.000
    O26     O    0.90885   0.25005   0.11164   1.000
    O27     O    0.75691   0.32120   0.21535   1.000
    Zr28    Zr   0.35632   0.25693   0.09715   1.000
    O29     O    0.40885   0.25005   0.11162   1.000
    O30     O    0.25675   0.32120   0.21533   1.000
    O31     O    0.33186   0.17234   0.06723   1.000
    O32     O    0.39396   0.33236   0.18041   1.000
    Zr33    Zr   0.50001   1.00000   0.00000   1.000
    O34     O    0.51080   0.07156   0.03821   1.000
    O35     O    0.48922   0.92843   0.96179   1.000
    O36     O    0.49839   0.86198   0.14381   1.000
    O37     O    0.50163   0.13800   0.85619   1.000
loop_
    _geom_bond_atom_site_label_1
    _geom_bond_atom_site_label_2
    _geom_bond_distance
    _geom_bond_site_symmetry_2
    _ccdc_geom_bond_type
    Zr8    O9        1.84190      .   S
    N1     O9        5.72692  1_655   S
    Zr8    O10       1.01667      .   S
    N2     O10       2.12240  1_655   S
    Zr8    O11       2.13884      .   S
    N0     O11       5.44092      .   S
    Zr8    O12       1.33955      .   S
    N7     O12       3.14192  1_554   S
    Zr13   O14       1.33951      .   S
    N6     O14       3.14179      .   S
    Zr13   O15       2.13723      .   S
    N1     O15       5.43588      .   S
    Zr13   O16       1.83997      .   S
    N0     O16       5.72133      .   S
    Zr13   O17       1.01671      .   S
    N3     O17       2.12250      .   S
    Zr18   O19       1.13160  1_565   S
    N4     O19       2.36728      .   S
    Zr18   O20       2.21745  1_455   S
    N1     O20       5.64621      .   S
    Zr18   O21       2.21798  1_564   S
    N1     O21       5.64771  1_655   S
    Zr18   O22       1.13162  1_454   S
    N2     O22       2.36732      .   S
    Zr23   O24       1.33959      .   S
    N6     O24       3.14205  1_566   S
    Zr23   O25       1.83804      .   S
    N1     O25       5.71564      .   S
    Zr23   O26       1.01668      .   S
    N4     O26       2.12240  1_455   S
    Zr23   O27       2.13880      .   S
    N0     O27       5.44084      .   S
    Zr28   O29       1.01665      .   S
    N5     O29       2.12251      .   S
    Zr28   O30       2.14042      .   S
    N1     O30       5.44580  1_655   S
    Zr28   O31       1.33954      .   S
    N7     O31       3.14190  1_565   S
    Zr28   O32       1.83999      .   S
    N0     O32       5.72132      .   S
    Zr33   O34       1.13155  1_565   S
    N5     O34       2.36716      .   S
    Zr33   O35       1.13164  1_554   S
    N3     O35       2.36736      .   S
    Zr33   O36       2.21781      .   S
    N0     O36       5.64698      .   S
    Zr33   O37       2.21771  1_564   S
    N0     O37       5.64684      .   S
