# CIF file generated by openbabel 2.4.90, see http://openbabel.sf.net
data_I
_chemical_name_common ''
_cell_length_a 14.357
_cell_length_b 15.243
_cell_length_c 16.405
_cell_angle_alpha 89.997
_cell_angle_beta 90.004
_cell_angle_gamma 97.449
_space_group_name_H-M_alt 'P 1'
_space_group_name_Hall 'P 1'
loop_
    _symmetry_equiv_pos_as_xyz
    x,y,z
loop_
    _atom_site_label
    _atom_site_type_symbol
    _atom_site_fract_x
    _atom_site_fract_y
    _atom_site_fract_z
    _atom_site_occupancy
    H0      H    0.20477   0.66569   0.20730   1.000
    H1      H    0.70501   0.66550   0.20733   1.000
    H2      H    0.05051   0.73624   0.22519   1.000
    H3      H    0.55037   0.73582   0.22500   1.000
    H4      H    0.04552   0.83466   0.70727   1.000
    H5      H    0.54539   0.83528   0.70696   1.000
    H6      H    0.19996   0.76392   0.72535   1.000
    H7      H    0.70000   0.76393   0.72530   1.000
    H8      H    0.29500   0.33450   0.79260   1.000
    H9      H    0.79524   0.33433   0.79270   1.000
    H10     H    0.44965   0.26418   0.77480   1.000
    H11     H    0.94950   0.26375   0.77480   1.000
    H12     H    0.45462   0.16471   0.29303   1.000
    H13     H    0.95449   0.16532   0.29272   1.000
    H14     H    0.30001   0.23608   0.27468   1.000
    H15     H    0.80004   0.23608   0.27464   1.000
    C16     C    0.42673   0.66487   0.28006   1.000
    C17     C    0.92700   0.66514   0.28016   1.000
    C18     C    0.32809   0.64391   0.27374   1.000
    C19     C    0.82836   0.64401   0.27385   1.000
    C20     C    0.28053   0.68309   0.21206   1.000
    C21     C    0.78074   0.68301   0.21210   1.000
    C22     C    0.32763   0.74403   0.15789   1.000
    C23     C    0.82772   0.74397   0.15780   1.000
    C24     C    0.42593   0.76188   0.16149   1.000
    C25     C    0.92601   0.76198   0.16148   1.000
    C26     C    0.47411   0.72185   0.22240   1.000
    C27     C    0.97427   0.72215   0.22247   1.000
    C28     C    0.48672   0.62534   0.34230   1.000
    C29     C    0.98715   0.62564   0.34228   1.000
    C30     C    0.26861   0.58655   0.33347   1.000
    C31     C    0.76883   0.58666   0.33357   1.000
    C32     C    0.26942   0.78501   0.09673   1.000
    C33     C    0.76938   0.78482   0.09674   1.000
    C34     C    0.47948   0.81924   0.09833   1.000
    C35     C    0.97956   0.81928   0.09829   1.000
    C36     C    0.32347   0.83539   0.78000   1.000
    C37     C    0.82355   0.83522   0.78008   1.000
    C38     C    0.42207   0.85671   0.77355   1.000
    C39     C    0.92217   0.85641   0.77367   1.000
    C40     C    0.46968   0.81762   0.71187   1.000
    C41     C    0.96978   0.81719   0.71207   1.000
    C42     C    0.42271   0.75635   0.65788   1.000
    C43     C    0.92277   0.75604   0.65802   1.000
    C44     C    0.32443   0.73812   0.66160   1.000
    C45     C    0.82447   0.73801   0.66167   1.000
    C46     C    0.27620   0.77813   0.72253   1.000
    C47     C    0.77625   0.77804   0.72254   1.000
    C48     C    0.26340   0.87495   0.84217   1.000
    C49     C    0.76351   0.87482   0.84223   1.000
    C50     C    0.48148   0.91411   0.83329   1.000
    C51     C    0.98154   0.91393   0.83334   1.000
    C52     C    0.48104   0.71538   0.59686   1.000
    C53     C    0.98106   0.71507   0.59694   1.000
    C54     C    0.27074   0.68060   0.59864   1.000
    C55     C    0.77081   0.68056   0.59860   1.000
    C56     C    0.07301   0.33485   0.71982   1.000
    C57     C    0.57328   0.33513   0.71990   1.000
    C58     C    0.17165   0.35598   0.72614   1.000
    C59     C    0.67192   0.35610   0.72625   1.000
    C60     C    0.21927   0.31699   0.78780   1.000
    C61     C    0.71949   0.31693   0.78793   1.000
    C62     C    0.17229   0.25603   0.84211   1.000
    C63     C    0.67239   0.25598   0.84210   1.000
    C64     C    0.07400   0.23801   0.83850   1.000
    C65     C    0.57409   0.23812   0.83849   1.000
    C66     C    0.02574   0.27784   0.77752   1.000
    C67     C    0.52590   0.27816   0.77758   1.000
    C68     C    0.01286   0.37435   0.65771   1.000
    C69     C    0.51329   0.37467   0.65769   1.000
    C70     C    0.23118   0.41334   0.66642   1.000
    C71     C    0.73140   0.41346   0.66653   1.000
    C72     C    0.23064   0.21519   0.90324   1.000
    C73     C    0.73060   0.21500   0.90326   1.000
    C74     C    0.02045   0.18071   0.90170   1.000
    C75     C    0.52053   0.18075   0.90164   1.000
    C76     C    0.17646   0.16479   0.21990   1.000
    C77     C    0.67654   0.16461   0.21995   1.000
    C78     C    0.07785   0.14359   0.22632   1.000
    C79     C    0.57794   0.14329   0.22644   1.000
    C80     C    0.03023   0.18280   0.28791   1.000
    C81     C    0.53033   0.18237   0.28812   1.000
    C82     C    0.07724   0.24396   0.34197   1.000
    C83     C    0.57730   0.24364   0.34210   1.000
    C84     C    0.17553   0.26199   0.33832   1.000
    C85     C    0.67557   0.26188   0.33833   1.000
    C86     C    0.22376   0.22197   0.27744   1.000
    C87     C    0.72381   0.22186   0.27745   1.000
    C88     C    0.23651   0.12520   0.15775   1.000
    C89     C    0.73661   0.12505   0.15781   1.000
    C90     C    0.01847   0.08606   0.16660   1.000
    C91     C    0.51853   0.08588   0.16670   1.000
    C92     C    0.01895   0.28493   0.40305   1.000
    C93     C    0.51896   0.28461   0.40313   1.000
    C94     C    0.22920   0.31944   0.40138   1.000
    C95     C    0.72926   0.31940   0.40130   1.000
    O96     O    0.47894   0.54118   0.34740   1.000
    O97     O    0.97914   0.54149   0.34750   1.000
    O98     O    0.04531   0.68032   0.38172   1.000
    O99     O    0.54453   0.68009   0.38198   1.000
    O100    O    0.19055   0.54686   0.30603   1.000
    O101    O    0.69068   0.54710   0.30616   1.000
    O102    O    0.29769   0.58547   0.40628   1.000
    O103    O    0.79794   0.58549   0.40636   1.000
    O104    O    0.25541   0.86713   0.10450   1.000
    O105    O    0.75561   0.86702   0.10432   1.000
    O106    O    0.22843   0.73863   0.04104   1.000
    O107    O    0.72803   0.73828   0.04132   1.000
    O108    O    0.04424   0.78556   0.06189   1.000
    O109    O    0.54418   0.78556   0.06192   1.000
    O110    O    0.45567   0.89586   0.08546   1.000
    O111    O    0.95576   0.89590   0.08538   1.000
    O112    O    0.27152   0.95910   0.84748   1.000
    O113    O    0.77156   0.95897   0.84747   1.000
    O114    O    0.20517   0.82033   0.88159   1.000
    O115    O    0.70539   0.82018   0.88173   1.000
    O116    O    0.05935   0.95413   0.80580   1.000
    O117    O    0.55933   0.95427   0.80580   1.000
    O118    O    0.45258   0.91468   0.90617   1.000
    O119    O    0.95260   0.91463   0.90620   1.000
    O120    O    0.49415   0.63298   0.60410   1.000
    O121    O    0.99451   0.63278   0.60439   1.000
    O122    O    0.02260   0.76162   0.54160   1.000
    O123    O    0.52293   0.76199   0.54172   1.000
    O124    O    0.20640   0.71444   0.56189   1.000
    O125    O    0.70639   0.71437   0.56191   1.000
    O126    O    0.29394   0.60363   0.58628   1.000
    O127    O    0.79416   0.60367   0.58610   1.000
    O128    O    0.02087   0.45850   0.65249   1.000
    O129    O    0.52108   0.45882   0.65257   1.000
    O130    O    0.45549   0.31991   0.61801   1.000
    O131    O    0.95469   0.31968   0.61827   1.000
    O132    O    0.30933   0.45289   0.69380   1.000
    O133    O    0.80945   0.45316   0.69396   1.000
    O134    O    0.20206   0.41451   0.59363   1.000
    O135    O    0.70232   0.41452   0.59371   1.000
    O136    O    0.24440   0.13297   0.89568   1.000
    O137    O    0.74459   0.13288   0.89550   1.000
    O138    O    0.27200   0.26173   0.95865   1.000
    O139    O    0.77161   0.26139   0.95893   1.000
    O140    O    0.45585   0.21444   0.93808   1.000
    O141    O    0.95577   0.21444   0.93810   1.000
    O142    O    0.04424   0.10409   0.91459   1.000
    O143    O    0.54431   0.10411   0.91440   1.000
    O144    O    0.22847   0.04105   0.15252   1.000
    O145    O    0.72850   0.04090   0.15251   1.000
    O146    O    0.29462   0.17985   0.11825   1.000
    O147    O    0.79483   0.17967   0.11840   1.000
    O148    O    0.44070   0.04570   0.19414   1.000
    O149    O    0.94066   0.04587   0.19412   1.000
    O150    O    0.04742   0.08536   0.09379   1.000
    O151    O    0.54743   0.08531   0.09382   1.000
    O152    O    0.00550   0.36722   0.39560   1.000
    O153    O    0.50585   0.36701   0.39583   1.000
    O154    O    0.47708   0.23800   0.45826   1.000
    O155    O    0.97741   0.23838   0.45830   1.000
    O156    O    0.29361   0.28563   0.43808   1.000
    O157    O    0.79361   0.28555   0.43809   1.000
    O158    O    0.20586   0.39633   0.41385   1.000
    O159    O    0.70606   0.39636   0.41371   1.000
loop_
    _geom_bond_atom_site_label_1
    _geom_bond_atom_site_label_2
    _geom_bond_distance
    _geom_bond_site_symmetry_2
    _ccdc_geom_bond_type
    O106   C32       1.25418      .   S
    O107   C33       1.25412      .   S
    O108   C35       1.26772  1_455   S
    O109   C34       1.26763      .   S
    O111   C35       1.27636      .   S
    O110   C34       1.27644      .   S
    O150   C90       1.26519      .   S
    O151   C91       1.26596      .   S
    C32    O104      1.29950      .   S
    C32    C22       1.49344      .   S
    C33    O105      1.29964      .   S
    C33    C23       1.49257      .   S
    C35    C25       1.50146      .   S
    C34    C24       1.50164      .   S
    O146   C88       1.27661      .   S
    O147   C89       1.27648      .   S
    O145   C89       1.27588      .   S
    O144   C88       1.27582      .   S
    C88    C76       1.51058      .   S
    C23    C25       1.40353      .   S
    C23    C21       1.39618      .   S
    C89    C77       1.51049      .   S
    C22    C24       1.40348      .   S
    C22    C20       1.39540      .   S
    C25    C27       1.39952      .   S
    C24    C26       1.39953      .   S
    C90    O149      1.28440  1_455   S
    C90    C78       1.50388      .   S
    C91    O148      1.28421      .   S
    C91    C79       1.50339      .   S
    H0     C20       1.08834      .   S
    H1     C21       1.08830      .   S
    C20    C18       1.39727      .   S
    C21    C19       1.39718      .   S
    C76    C78       1.41475      .   S
    C76    C86       1.39941      .   S
    C77    C79       1.41479      .   S
    C77    C87       1.39938      .   S
    C26    H3        1.08878      .   S
    C26    C16       1.39946      .   S
    C27    H2        1.08877  1_655   S
    C27    C17       1.39941      .   S
    C78    C80       1.39700      .   S
    C79    C81       1.39709      .   S
    C18    C16       1.41461      .   S
    C18    C30       1.50343      .   S
    C19    C17       1.41488      .   S
    C19    C31       1.50362      .   S
    H15    C87       1.08882      .   S
    H14    C86       1.08885      .   S
    C86    C84       1.39954      .   S
    C87    C85       1.39956      .   S
    C16    C28       1.51059      .   S
    C17    C29       1.51044      .   S
    C80    H13       1.08830  1_455   S
    C80    C82       1.39568      .   S
    C81    H12       1.08839      .   S
    C81    C83       1.39564      .   S
    O100   C30       1.28400      .   S
    O101   C31       1.28417      .   S
    C30    O102      1.26612      .   S
    C31    O103      1.26603      .   S
    C84    C82       1.40359      .   S
    C84    C94       1.50186      .   S
    C85    C83       1.40361      .   S
    C85    C95       1.50162      .   S
    C82    C92       1.49334      .   S
    C83    C93       1.49319      .   S
    C29    O97       1.27576      .   S
    C29    O98       1.27672  1_655   S
    C28    O96       1.27586      .   S
    C28    O99       1.27651      .   S
    O152   C92       1.29934      .   S
    O153   C93       1.29956      .   S
    C95    O159      1.27674      .   S
    C95    O157      1.26781      .   S
    C94    O158      1.27667      .   S
    C94    O156      1.26750      .   S
    C92    O155      1.25337  1_455   S
    C93    O154      1.25440      .   S
    O122   C53       1.25442  1_455   S
    O123   C52       1.25453      .   S
    O124   C54       1.26749      .   S
    O125   C55       1.26747      .   S
    O127   C55       1.27673      .   S
    O126   C54       1.27660      .   S
    O134   C70       1.26603      .   S
    O135   C71       1.26624      .   S
    C52    O120      1.29947      .   S
    C52    C42       1.49308      .   S
    C53    O121      1.29935      .   S
    C53    C43       1.49334      .   S
    C55    C45       1.50197      .   S
    C54    C44       1.50151      .   S
    O130   C69       1.27651      .   S
    O131   C68       1.27675  1_655   S
    O128   C68       1.27578      .   S
    O129   C69       1.27587      .   S
    C69    C57       1.51024      .   S
    C68    C56       1.51034      .   S
    C42    C44       1.40357      .   S
    C42    C40       1.39574      .   S
    C43    C45       1.40359      .   S
    C43    C41       1.39557      .   S
    C44    C46       1.40014      .   S
    C45    C47       1.39948      .   S
    C70    O132      1.28401      .   S
    C70    C58       1.50361      .   S
    C71    O133      1.28394      .   S
    C71    C59       1.50330      .   S
    H5     C40       1.08839      .   S
    H4     C41       1.08829  1_455   S
    C40    C38       1.39707      .   S
    C41    C39       1.39718      .   S
    C56    C58       1.41490      .   S
    C56    C66       1.39951      .   S
    C57    C59       1.41463      .   S
    C57    C67       1.39972      .   S
    C46    H6        1.08883      .   S
    C46    C36       1.39907      .   S
    C47    H7        1.08886      .   S
    C47    C37       1.39941      .   S
    C58    C60       1.39611      .   S
    C59    C61       1.39726      .   S
    C38    C36       1.41473      .   S
    C38    C50       1.50339      .   S
    C39    C37       1.41473      .   S
    C39    C51       1.50331      .   S
    H10    C67       1.08890      .   S
    H11    C66       1.08877  1_655   S
    C66    C64       1.39941      .   S
    C67    C65       1.39953      .   S
    C36    C48       1.51083      .   S
    C37    C49       1.51057      .   S
    C60    H8        1.08835      .   S
    C60    C62       1.39627      .   S
    C61    H9        1.08835      .   S
    C61    C63       1.39544      .   S
    O117   C50       1.28451      .   S
    O116   C51       1.28453  1_455   S
    C50    O118      1.26600      .   S
    C51    O119      1.26597      .   S
    C65    C63       1.40348      .   S
    C65    C75       1.50165      .   S
    C64    C62       1.40349      .   S
    C64    C74       1.50159      .   S
    C63    C73       1.49345      .   S
    C62    C72       1.49336      .   S
    C48    O112      1.27590      .   S
    C48    O114      1.27659      .   S
    C49    O113      1.27583      .   S
    C49    O115      1.27661      .   S
    O137   C73       1.29950      .   S
    O136   C72       1.29961      .   S
    C75    O143      1.27624      .   S
    C75    O140      1.26767      .   S
    C74    O142      1.27633      .   S
    C74    O141      1.26767  1_455   S
    C72    O138      1.25416      .   S
    C73    O139      1.25412      .   S
