# CIF file generated by openbabel 2.4.90, see http://openbabel.sf.net
data_I
_chemical_name_common ''
_cell_length_a 14.357
_cell_length_b 15.243
_cell_length_c 16.405
_cell_angle_alpha 89.997
_cell_angle_beta 90.004
_cell_angle_gamma 97.449
_space_group_name_H-M_alt 'P 1'
_space_group_name_Hall 'P 1'
loop_
    _symmetry_equiv_pos_as_xyz
    x,y,z
loop_
    _atom_site_label
    _atom_site_type_symbol
    _atom_site_fract_x
    _atom_site_fract_y
    _atom_site_fract_z
    _atom_site_occupancy
    Zn0     Zn   0.59772   0.66241   0.49300   1.000
    Zn1     Zn   0.09349   0.47796   0.37500   1.000
    Zn2     Zn   0.59355   0.47794   0.37499   1.000
    Zn3     Zn   0.15245   0.83769   0.99328   1.000
    Zn4     Zn   0.65245   0.83763   0.99332   1.000
    Zn5     Zn   0.15664   0.02215   0.87503   1.000
    Zn6     Zn   0.65669   0.02212   0.87502   1.000
    Zn7     Zn   0.40229   0.33759   0.50659   1.000
    Zn8     Zn   0.90220   0.33758   0.50664   1.000
    Zn9     Zn   0.40645   0.52205   0.62500   1.000
    Zn10    Zn   0.90652   0.52204   0.62499   1.000
    Zn11    Zn   0.34756   0.16238   0.00666   1.000
    Zn12    Zn   0.84756   0.16231   0.00671   1.000
    Zn13    Zn   0.34332   0.97788   0.12496   1.000
    Zn14    Zn   0.84337   0.97784   0.12495   1.000
    Zn15    Zn   0.24998   0.50000   0.50000   1.000
    Zn16    Zn   0.75003   0.50000   0.49999   1.000
    Zn17    Zn   0.00000   0.00000   0.99999   1.000
    Zn18    Zn   0.50000   0.00000   0.99999   1.000
    H19     H    0.41958   0.49868   0.46392   1.000
    H20     H    0.91960   0.49865   0.46390   1.000
    H21     H    0.33030   0.00130   0.96395   1.000
    H22     H    0.83032   0.00124   0.96392   1.000
    H23     H    0.08041   0.50134   0.53600   1.000
    Zn24    Zn   0.09781   0.66242   0.49335   1.000
    H25     H    0.58043   0.50131   0.53607   1.000
    H26     H    0.16969   0.99876   0.03606   1.000
    H27     H    0.66972   0.99871   0.03604   1.000
    O28     O    0.38680   0.46769   0.51032   1.000
    O29     O    0.88684   0.46767   0.51031   1.000
    O30     O    0.36310   0.03226   0.01030   1.000
    O31     O    0.86308   0.03221   0.01035   1.000
    O32     O    0.11317   0.53233   0.48967   1.000
    O33     O    0.61321   0.53230   0.48967   1.000
    O34     O    0.13692   0.96779   0.98964   1.000
    O35     O    0.63691   0.96774   0.98962   1.000
loop_
    _geom_bond_atom_site_label_1
    _geom_bond_atom_site_label_2
    _geom_bond_distance
    _geom_bond_site_symmetry_2
    _ccdc_geom_bond_type
    Zn11   O30       2.02527      .   S
    Zn12   O31       2.02496      .   S
    O30    H21       0.98236  1_554   S
    O31    H22       0.98321  1_554   S
    H27    O35       0.98327  1_554   S
    H26    O34       0.98311  1_554   S
    H20    O29       0.98304      .   S
    H19    O28       0.98309      .   S
    O32    Zn24      2.02433      .   S
    O32    H23       0.98203      .   S
    O33    Zn0       2.02482      .   S
    O33    H25       0.98307      .   S
    Zn7    O28       2.02500      .   S
    Zn8    O29       2.02434      .   S
    O35    Zn4       2.02536      .   S
    O34    Zn3       2.02496      .   S
    O28    Zn9       2.06037      .   S
    O28    Zn15      2.09289      .   S
    O29    Zn10      2.06045      .   S
    O29    Zn16      2.09298      .   S
    O30    Zn13      2.06031  1_545   S
    O30    Zn18      2.09393  1_554   S
    O31    Zn14      2.05924  1_545   S
    O31    Zn17      2.09386  1_654   S
    O32    Zn1       2.06027      .   S
    O32    Zn15      2.09299      .   S
    O33    Zn2       2.06038      .   S
    O33    Zn16      2.09289      .   S
    O34    Zn5       2.05937  1_565   S
    O34    Zn17      2.09399  1_565   S
    O35    Zn6       2.05936  1_565   S
    O35    Zn18      2.09402  1_565   S
