# CIF file generated by openbabel 2.4.90, see http://openbabel.sf.net
data_I
_chemical_name_common ''
_cell_length_a 14.357
_cell_length_b 15.243
_cell_length_c 16.405
_cell_angle_alpha 89.997
_cell_angle_beta 90.004
_cell_angle_gamma 97.449
_space_group_name_H-M_alt 'P 1'
_space_group_name_Hall 'P 1'
loop_
    _symmetry_equiv_pos_as_xyz
    x,y,z
loop_
    _atom_site_label
    _atom_site_type_symbol
    _atom_site_fract_x
    _atom_site_fract_y
    _atom_site_fract_z
    _atom_site_occupancy
    N0      N    0.87440   0.79621   0.71735   1.000
    N1      N    0.37433   0.79640   0.71729   1.000
    N2      N    0.62412   0.29610   0.78270   1.000
    N3      N    0.12395   0.29602   0.78268   1.000
    N4      N    0.62568   0.20359   0.28269   1.000
    N5      N    0.12561   0.20379   0.28263   1.000
    N6      N    0.37589   0.70390   0.21727   1.000
    N7      N    0.87606   0.70398   0.21730   1.000
    Zr8     Zr   0.25000   0.50001   0.49998   1.000
    O9      O    0.10865   0.62706   0.55870   1.000
    O10     O    0.39134   0.37285   0.44127   1.000
    Zr11    Zr   0.75001   0.49999   0.49995   1.000
    O12     O    0.89136   0.37294   0.44125   1.000
    O13     O    0.60867   0.62714   0.55864   1.000
    Zr14    Zr   0.50001   0.00000   0.99998   1.000
    O15     O    0.35844   0.12702   0.94133   1.000
    O16     O    0.64158   0.87298   0.05865   1.000
    Zr17    Zr   0.00000   0.00000   0.99999   1.000
    O18     O    0.14158   0.87302   0.05860   1.000
    O19     O    0.85843   0.12699   0.94138   1.000
    O20     O    0.47912   0.94229   0.90350   1.000
    O21     O    0.14270   0.92655   0.90415   1.000
    O22     O    0.52089   0.05770   0.09647   1.000
    O23     O    0.64273   0.92649   0.90418   1.000
    O24     O    0.35728   0.07352   0.09580   1.000
    O25     O    0.29512   0.59789   0.57250   1.000
    O26     O    0.10750   0.57363   0.40416   1.000
    O27     O    0.22897   0.44210   0.59644   1.000
    O28     O    0.39261   0.42643   0.59580   1.000
    O29     O    0.27095   0.55787   0.40352   1.000
    O30     O    0.77103   0.55790   0.40352   1.000
    O31     O    0.89251   0.42636   0.59579   1.000
    O32     O    0.72906   0.44213   0.59644   1.000
    O33     O    0.60740   0.57357   0.40413   1.000
    O34     O    0.85731   0.07344   0.09583   1.000
    O35     O    0.97914   0.94224   0.90352   1.000
    O36     O    0.02087   0.05776   0.09646   1.000
    O37     O    0.70489   0.40210   0.42746   1.000
    O38     O    0.95497   0.90217   0.07245   1.000
    O39     O    0.79517   0.59783   0.57248   1.000
    O40     O    0.20484   0.40217   0.42746   1.000
    O41     O    0.04504   0.09782   0.92753   1.000
    O42     O    0.54510   0.09784   0.92751   1.000
    O43     O    0.45491   0.90216   0.07245   1.000
loop_
    _geom_bond_atom_site_label_1
    _geom_bond_atom_site_label_2
    _geom_bond_distance
    _geom_bond_site_symmetry_2
    _ccdc_geom_bond_type
    Zr8    O9        3.13309      .   S
    N0     O9        5.19448  1_655   S
    Zr8    O10       3.13411      .   S
    N4     O10       5.19578      .   S
    Zr11   O12       3.13301      .   S
    N5     O12       5.19424  1_455   S
    Zr11   O13       3.13397      .   S
    N1     O13       5.19633      .   S
    Zr14   O15       3.13458      .   S
    N3     O15       5.19517      .   S
    Zr14   O16       3.13464  1_546   S
    N7     O16       5.19520      .   S
    Zr17   O18       3.13410  1_546   S
    N6     O18       5.19447      .   S
    Zr17   O19       3.13411  1_455   S
    N2     O19       5.19456      .   S
    N1     O20       3.95900      .   S
    Zr14   O20       1.81679  1_545   S
    N1     O21       5.10938      .   S
    Zr17   O21       2.91846  1_545   S
    Zr14   O22       1.81678  1_556   S
    N4     O22       3.95899      .   S
    Zr14   O23       2.91911  1_545   S
    N0     O23       5.11018      .   S
    Zr14   O24       2.91915  1_556   S
    N5     O24       5.11018      .   S
    Zr8    O25       1.95204      .   S
    N1     O25       3.89862      .   S
    Zr8    O26       2.91732      .   S
    N7     O26       5.10837  1_655   S
    Zr8    O27       1.81794      .   S
    N3     O27       3.96182      .   S
    Zr8    O28       2.91821      .   S
    N2     O28       5.10931      .   S
    Zr8    O29       1.81772      .   S
    N6     O29       3.96110      .   S
    Zr11   O30       1.81762      .   S
    N7     O30       3.96160      .   S
    Zr11   O31       2.91754      .   S
    N3     O31       5.10855  1_455   S
    Zr11   O32       1.81801      .   S
    N2     O32       3.96120      .   S
    Zr11   O33       2.91824      .   S
    N6     O33       5.10893      .   S
    Zr17   O34       2.91843  1_456   S
    N4     O34       5.10929      .   S
    Zr17   O35       1.81696  1_445   S
    N0     O35       3.95928      .   S
    Zr17   O36       1.81687  1_556   S
    N5     O36       3.95927      .   S
    N4     O37       3.89845      .   S
    Zr11   O37       1.95183      .   S
    N7     O38       3.89475      .   S
    Zr17   O38       1.95048  1_446   S
    N0     O39       3.89801      .   S
    Zr11   O39       1.95184      .   S
    N5     O40       3.89765      .   S
    Zr8    O40       1.95172      .   S
    N3     O41       3.89480      .   S
    Zr17   O41       1.95049      .   S
    N2     O42       3.89544      .   S
    Zr14   O42       1.95101      .   S
    N6     O43       3.89542      .   S
    Zr14   O43       1.95100  1_546   S
