# CIF file generated by openbabel 2.4.90, see http://openbabel.sf.net
data_I
_chemical_name_common ''
_cell_length_a 14.357
_cell_length_b 15.243
_cell_length_c 16.405
_cell_angle_alpha 89.997
_cell_angle_beta 90.004
_cell_angle_gamma 97.449
_space_group_name_H-M_alt 'P 1'
_space_group_name_Hall 'P 1'
loop_
    _symmetry_equiv_pos_as_xyz
    x,y,z
loop_
    _atom_site_label
    _atom_site_type_symbol
    _atom_site_fract_x
    _atom_site_fract_y
    _atom_site_fract_z
    _atom_site_occupancy
    Zr0     Zr   0.09781   0.66242   0.49335   1.000
    Zr1     Zr   0.59772   0.66241   0.49300   1.000
    Zr2     Zr   0.09349   0.47796   0.37500   1.000
    Zr3     Zr   0.59355   0.47794   0.37499   1.000
    Zr4     Zr   0.15245   0.83769   0.99328   1.000
    Zr5     Zr   0.65245   0.83763   0.99332   1.000
    Zr6     Zr   0.15664   0.02215   0.87503   1.000
    Zr7     Zr   0.65669   0.02212   0.87502   1.000
    Zr8     Zr   0.40229   0.33759   0.50659   1.000
    Zr9     Zr   0.90220   0.33758   0.50664   1.000
    Zr10    Zr   0.40645   0.52205   0.62500   1.000
    Zr11    Zr   0.90652   0.52204   0.62499   1.000
    Zr12    Zr   0.34756   0.16238   0.00666   1.000
    Zr13    Zr   0.84756   0.16231   0.00671   1.000
    Zr14    Zr   0.34332   0.97788   0.12496   1.000
    Zr15    Zr   0.84337   0.97784   0.12495   1.000
    Zr16    Zr   0.24998   0.50000   0.50000   1.000
    Zr17    Zr   0.75003   0.50000   0.49999   1.000
    Zr18    Zr   0.00000   0.00000   0.99999   1.000
    Zr19    Zr   0.50000   0.00000   0.99999   1.000
    Zr20    Zr   0.41958   0.49868   0.46392   1.000
    Zr21    Zr   0.91960   0.49865   0.46390   1.000
    Zr22    Zr   0.33030   0.00130   0.96395   1.000
    Zr23    Zr   0.83032   0.00124   0.96392   1.000
    Zr24    Zr   0.08041   0.50134   0.53600   1.000
    Zr25    Zr   0.58043   0.50131   0.53607   1.000
    Zr26    Zr   0.16969   0.99876   0.03606   1.000
    Zr27    Zr   0.66972   0.99871   0.03604   1.000
    Zr28    Zr   0.38680   0.46769   0.51032   1.000
    Zr29    Zr   0.88684   0.46767   0.51031   1.000
    Zr30    Zr   0.36310   0.03226   0.01030   1.000
    Zr31    Zr   0.86308   0.03221   0.01035   1.000
    Zr32    Zr   0.11317   0.53233   0.48967   1.000
    Zr33    Zr   0.61321   0.53230   0.48967   1.000
    Zr34    Zr   0.13692   0.96779   0.98964   1.000
    Zr35    Zr   0.63691   0.96774   0.98962   1.000
    O36     O    0.35533   0.09732   0.00848   1.000
    O37     O    0.85532   0.09726   0.00853   1.000
    O38     O    0.34670   0.01678   0.98712   1.000
    O39     O    0.84670   0.01673   0.98713   1.000
    O40     O    0.65331   0.98323   0.01283   1.000
    O41     O    0.15331   0.98327   0.01285   1.000
    O42     O    0.90322   0.48316   0.48711   1.000
    O43     O    0.40319   0.48319   0.48712   1.000
    O44     O    0.10549   0.59737   0.49151   1.000
    O45     O    0.09679   0.51683   0.51284   1.000
    O46     O    0.60547   0.59736   0.49134   1.000
    O47     O    0.59682   0.51681   0.51287   1.000
    O48     O    0.39454   0.40264   0.50845   1.000
    O49     O    0.89452   0.40262   0.50848   1.000
    O50     O    0.64468   0.90269   0.99147   1.000
    O51     O    0.14469   0.90274   0.99146   1.000
    O52     O    0.39662   0.49487   0.56766   1.000
    O53     O    0.31839   0.48385   0.50516   1.000
    O54     O    0.89668   0.49485   0.56765   1.000
    O55     O    0.81843   0.48383   0.50515   1.000
    O56     O    0.35321   0.00507   0.06763   1.000
    O57     O    0.43155   0.01613   0.00514   1.000
    O58     O    0.85323   0.00503   0.06765   1.000
    O59     O    0.93154   0.01611   0.00517   1.000
    O60     O    0.10333   0.50514   0.43233   1.000
    O61     O    0.18158   0.51616   0.49483   1.000
    O62     O    0.60338   0.50512   0.43233   1.000
    O63     O    0.68162   0.51615   0.49483   1.000
    O64     O    0.14678   0.99497   0.93233   1.000
    O65     O    0.06846   0.98389   0.99481   1.000
    O66     O    0.64680   0.99493   0.93232   1.000
    O67     O    0.56846   0.98387   0.99481   1.000
    N68     N    0.87440   0.79621   0.71735   1.000
    O69     O    0.76323   0.74230   0.62240   1.000
    O70     O    0.86237   0.67953   0.66145   1.000
    O71     O    0.82325   0.67402   0.63020   1.000
    O72     O    0.79426   0.89338   0.78930   1.000
    O73     O    0.77666   0.81256   0.82744   1.000
    O74     O    0.99120   0.89218   0.77888   1.000
    O75     O    0.92535   0.87676   0.83522   1.000
    O76     O    0.91246   0.68681   0.66602   1.000
    O77     O    0.96730   0.75412   0.61741   1.000
    N78     N    0.37433   0.79640   0.71729   1.000
    O79     O    0.26321   0.74242   0.62245   1.000
    O80     O    0.32315   0.67411   0.63021   1.000
    O81     O    0.36226   0.67962   0.66146   1.000
    O82     O    0.29420   0.89351   0.78927   1.000
    O83     O    0.27657   0.81271   0.82736   1.000
    O84     O    0.49117   0.89230   0.77885   1.000
    O85     O    0.42531   0.87687   0.83518   1.000
    O86     O    0.41231   0.68696   0.66592   1.000
    O87     O    0.46733   0.75430   0.61732   1.000
    N88     N    0.62412   0.29610   0.78270   1.000
    O89     O    0.66238   0.18680   0.83398   1.000
    O90     O    0.71685   0.25398   0.88276   1.000
    O91     O    0.51292   0.24226   0.87754   1.000
    O92     O    0.74105   0.39185   0.72109   1.000
    O93     O    0.67515   0.37668   0.66478   1.000
    O94     O    0.54394   0.39327   0.71074   1.000
    O95     O    0.52651   0.31243   0.67250   1.000
    O96     O    0.57314   0.17408   0.86995   1.000
    O97     O    0.61231   0.17961   0.83871   1.000
    N98     N    0.12395   0.29602   0.78268   1.000
    O99     O    0.21686   0.25403   0.88267   1.000
    O100    O    0.01281   0.24220   0.87754   1.000
    O101    O    0.07303   0.17403   0.86998   1.000
    O102    O    0.11219   0.17957   0.83874   1.000
    O103    O    0.24092   0.39174   0.72104   1.000
    O104    O    0.17499   0.37664   0.66475   1.000
    O105    O    0.16223   0.18679   0.83402   1.000
    O106    O    0.04382   0.39314   0.71071   1.000
    O107    O    0.02620   0.31232   0.67257   1.000
    N108    N    0.62568   0.20359   0.28269   1.000
    O109    O    0.67686   0.32589   0.36977   1.000
    O110    O    0.63774   0.32037   0.33852   1.000
    O111    O    0.72344   0.18729   0.17262   1.000
    O112    O    0.50884   0.10769   0.22112   1.000
    O113    O    0.57470   0.12312   0.16480   1.000
    O114    O    0.70581   0.10648   0.21071   1.000
    O115    O    0.58769   0.31304   0.33405   1.000
    O116    O    0.53268   0.24569   0.38256   1.000
    O117    O    0.73679   0.25758   0.37753   1.000
    N118    N    0.12561   0.20379   0.28263   1.000
    O119    O    0.00881   0.10782   0.22108   1.000
    O120    O    0.07466   0.12324   0.16476   1.000
    O121    O    0.08756   0.31319   0.33396   1.000
    O122    O    0.20575   0.10663   0.21068   1.000
    O123    O    0.22335   0.18745   0.17254   1.000
    O124    O    0.03271   0.24588   0.38255   1.000
    O125    O    0.23678   0.25770   0.37748   1.000
    O126    O    0.17677   0.32598   0.36978   1.000
    O127    O    0.13764   0.32047   0.33853   1.000
    N128    N    0.37589   0.70390   0.21727   1.000
    O129    O    0.47351   0.68758   0.32738   1.000
    O130    O    0.25896   0.60816   0.27889   1.000
    O131    O    0.32486   0.62332   0.33520   1.000
    O132    O    0.48710   0.75775   0.12244   1.000
    O133    O    0.38769   0.82039   0.16124   1.000
    O134    O    0.42686   0.82592   0.13000   1.000
    O135    O    0.45607   0.60673   0.28923   1.000
    O136    O    0.33763   0.81320   0.16600   1.000
    O137    O    0.28316   0.74603   0.11721   1.000
    N138    N    0.87606   0.70398   0.21730   1.000
    O139    O    0.75909   0.60825   0.27894   1.000
    O140    O    0.78315   0.74597   0.11731   1.000
    O141    O    0.98720   0.75780   0.12244   1.000
    O142    O    0.88781   0.82043   0.16123   1.000
    O143    O    0.92697   0.82596   0.12999   1.000
    O144    O    0.95619   0.60685   0.28927   1.000
    O145    O    0.97381   0.68767   0.32742   1.000
    O146    O    0.82502   0.62336   0.33524   1.000
    O147    O    0.83778   0.81321   0.16597   1.000
loop_
    _geom_bond_atom_site_label_1
    _geom_bond_atom_site_label_2
    _geom_bond_distance
    _geom_bond_site_symmetry_2
    _ccdc_geom_bond_type
    Zr12   O36       1.01264      .   S
    Zr30   O36       1.01264      .   S
    Zr13   O37       1.01248      .   S
    Zr31   O37       1.01248      .   S
    Zr30   O38       0.49118  1_554   S
    Zr22   O38       0.49118      .   S
    Zr31   O39       0.49161  1_554   S
    Zr23   O39       0.49161      .   S
    Zr27   O40       0.49163      .   S
    Zr35   O40       0.49163  1_556   S
    Zr26   O41       0.49156      .   S
    Zr34   O41       0.49156  1_556   S
    Zr21   O42       0.49152      .   S
    Zr29   O42       0.49152      .   S
    Zr20   O43       0.49154      .   S
    Zr28   O43       0.49154      .   S
    Zr32   O44       1.01217      .   S
    Zr0    O44       1.01217      .   S
    Zr32   O45       0.49102      .   S
    Zr24   O45       0.49102      .   S
    Zr33   O46       1.01241      .   S
    Zr1    O46       1.01241      .   S
    Zr33   O47       0.49154      .   S
    Zr25   O47       0.49154      .   S
    Zr8    O48       1.01250      .   S
    Zr28   O48       1.01250      .   S
    Zr9    O49       1.01217      .   S
    Zr29   O49       1.01217      .   S
    Zr35   O50       1.01268      .   S
    Zr5    O50       1.01268      .   S
    Zr34   O51       1.01248      .   S
    Zr4    O51       1.01248      .   S
    Zr28   O52       1.03019      .   S
    Zr10   O52       1.03019      .   S
    Zr28   O53       1.04644      .   S
    Zr16   O53       1.04644      .   S
    Zr29   O54       1.03022      .   S
    Zr11   O54       1.03022      .   S
    Zr29   O55       1.04649      .   S
    Zr17   O55       1.04649      .   S
    Zr30   O56       1.03016      .   S
    Zr14   O56       1.03016  1_565   S
    Zr30   O57       1.04697      .   S
    Zr19   O57       1.04697  1_556   S
    Zr31   O58       1.02962      .   S
    Zr15   O58       1.02962  1_565   S
    Zr31   O59       1.04693      .   S
    Zr18   O59       1.04693  1_456   S
    Zr32   O60       1.03014      .   S
    Zr2    O60       1.03014      .   S
    Zr32   O61       1.04649      .   S
    Zr16   O61       1.04649      .   S
    Zr33   O62       1.03019      .   S
    Zr3    O62       1.03019      .   S
    Zr33   O63       1.04645      .   S
    Zr17   O63       1.04645      .   S
    Zr34   O64       1.02968      .   S
    Zr6    O64       1.02968  1_545   S
    Zr34   O65       1.04699      .   S
    Zr18   O65       1.04699  1_545   S
    Zr35   O66       1.02968      .   S
    Zr7    O66       1.02968  1_545   S
    Zr35   O67       1.04701      .   S
    Zr19   O67       1.04701  1_545   S
    N68    O69       2.30404      .   S
    Zr1    O69       3.29923      .   S
    N68    O70       1.98858      .   S
    Zr11   O70       2.63012      .   S
    N68    O71       2.38702      .   S
    Zr17   O71       3.46147      .   S
    N68    O72       2.31361      .   S
    Zr7    O72       3.27647  1_545   S
    N68    O73       2.32032      .   S
    Zr5    O73       3.30288      .   S
    N68    O74       2.30966      .   S
    Zr6    O74       3.29162  1_445   S
    N68    O75       2.35567      .   S
    Zr18   O75       3.38555  1_445   S
    N68    O76       2.00622      .   S
    Zr11   O76       2.59098      .   S
    N68    O77       2.25850      .   S
    Zr0    O77       3.20722  1_455   S
    N78    O79       2.30255      .   S
    Zr0    O79       3.29559      .   S
    N78    O80       2.38750      .   S
    Zr16   O80       3.46226      .   S
    N78    O81       1.98933      .   S
    Zr10   O81       2.63142      .   S
    N78    O82       2.31322      .   S
    Zr6    O82       3.27561  1_545   S
    N78    O83       2.32020      .   S
    Zr4    O83       3.30243      .   S
    N78    O84       2.30972      .   S
    Zr7    O84       3.29135  1_545   S
    N78    O85       2.35549      .   S
    Zr19   O85       3.38536  1_545   S
    N78    O86       2.00665      .   S
    Zr10   O86       2.59257      .   S
    N78    O87       2.25972      .   S
    Zr1    O87       3.21044      .   S
    N88    O89       2.00556      .   S
    Zr7    O89       2.58997      .   S
    N88    O90       2.25841      .   S
    Zr13   O90       3.20741  1_554   S
    N88    O91       2.30298      .   S
    Zr12   O91       3.29493  1_554   S
    N88    O92       2.30973      .   S
    Zr11   O92       3.29308      .   S
    N88    O93       2.35680      .   S
    Zr17   O93       3.38713      .   S
    N88    O94       2.31389      .   S
    Zr10   O94       3.27608      .   S
    N88    O95       2.32043      .   S
    Zr8    O95       3.30337      .   S
    N88    O96       2.38556      .   S
    Zr19   O96       3.46004      .   S
    N88    O97       1.98692      .   S
    Zr7    O97       2.63062      .   S
    N98    O99       2.25845      .   S
    Zr12   O99       3.20770  1_554   S
    N98    O100      2.30256      .   S
    Zr13   O100      3.29438  1_654   S
    N98    O101      2.38550      .   S
    Zr18   O101      3.45883      .   S
    N98    O102      1.98679      .   S
    Zr6    O102      2.62981      .   S
    N98    O103      2.31012      .   S
    Zr10   O103      3.29422      .   S
    N98    O104      2.35721      .   S
    Zr16   O104      3.38745      .   S
    N98    O105      2.00514      .   S
    Zr6    O105      2.58934      .   S
    N98    O106      2.31311      .   S
    Zr11   O106      3.27524  1_655   S
    N98    O107      2.32043      .   S
    Zr9    O107      3.30207  1_655   S
    N108   O109      2.38759      .   S
    Zr17   O109      3.46238      .   S
    N108   O110      1.98939      .   S
    Zr3    O110      2.63146      .   S
    N108   O111      2.32009      .   S
    Zr13   O111      3.30234      .   S
    N108   O112      2.30977      .   S
    Zr14   O112      3.29120  1_565   S
    N108   O113      2.35540      .   S
    Zr19   O113      3.38531  1_556   S
    N108   O114      2.31318      .   S
    Zr15   O114      3.27562  1_565   S
    N108   O115      2.00661      .   S
    Zr3    O115      2.59268      .   S
    N108   O116      2.25860      .   S
    Zr8    O116      3.20743      .   S
    N108   O117      2.30261      .   S
    Zr9    O117      3.29570      .   S
    N118   O119      2.30978      .   S
    Zr15   O119      3.29153  1_665   S
    N118   O120      2.35562      .   S
    Zr18   O120      3.38556  1_556   S
    N118   O121      2.00625      .   S
    Zr2    O121      2.59099      .   S
    N118   O122      2.31357      .   S
    Zr14   O122      3.27650  1_565   S
    N118   O123      2.32027      .   S
    Zr12   O123      3.30287      .   S
    N118   O124      2.25834      .   S
    Zr9    O124      3.20752  1_655   S
    N118   O125      2.30297      .   S
    Zr8    O125      3.29612      .   S
    N118   O126      2.38699      .   S
    Zr16   O126      3.46158      .   S
    N118   O127      1.98856      .   S
    Zr2    O127      2.63015      .   S
    N128   O129      2.31928      .   S
    Zr1    O129      3.29942      .   S
    N128   O130      2.30980      .   S
    Zr2    O130      3.29325      .   S
    N128   O131      2.35696      .   S
    Zr16   O131      3.38732      .   S
    N128   O132      2.30290      .   S
    Zr5    O132      3.29488  1_556   S
    N128   O133      1.98696      .   S
    Zr14   O133      2.63047      .   S
    N128   O134      2.38566      .   S
    Zr19   O134      3.45975  1_546   S
    N128   O135      2.31395      .   S
    Zr3    O135      3.27620      .   S
    N128   O136      2.00549      .   S
    Zr14   O136      2.58985      .   S
    N128   O137      2.25832      .   S
    Zr4    O137      3.20728  1_556   S
    N138   O139      2.31014      .   S
    Zr3    O139      3.29436      .   S
    N138   O140      2.25841      .   S
    Zr5    O140      3.20769  1_556   S
    N138   O141      2.30249      .   S
    Zr4    O141      3.29427  1_456   S
    N138   O142      1.98676      .   S
    Zr15   O142      2.62980      .   S
    N138   O143      2.38548      .   S
    Zr18   O143      3.45884  1_446   S
    N138   O144      2.31316      .   S
    Zr2    O144      3.27528  1_455   S
    N138   O145      2.32050      .   S
    Zr0    O145      3.30218  1_455   S
    N138   O146      2.35733      .   S
    Zr17   O146      3.38754      .   S
    N138   O147      2.00509      .   S
    Zr15   O147      2.58933      .   S
