# CIF file generated by openbabel 2.4.90, see http://openbabel.sf.net
data_I
_chemical_name_common ''
_cell_length_a 14.357
_cell_length_b 15.243
_cell_length_c 16.405
_cell_angle_alpha 89.997
_cell_angle_beta 90.004
_cell_angle_gamma 97.449
_space_group_name_H-M_alt 'P 1'
_space_group_name_Hall 'P 1'
loop_
    _symmetry_equiv_pos_as_xyz
    x,y,z
loop_
    _atom_site_label
    _atom_site_type_symbol
    _atom_site_fract_x
    _atom_site_fract_y
    _atom_site_fract_z
    _atom_site_occupancy
    N0      N    0.87440   0.79621   0.71735   1.000
    N1      N    0.37433   0.79640   0.71729   1.000
    N2      N    0.62412   0.29610   0.78270   1.000
    N3      N    0.12395   0.29602   0.78268   1.000
    N4      N    0.62568   0.20359   0.28269   1.000
    N5      N    0.12561   0.20379   0.28263   1.000
    N6      N    0.37589   0.70390   0.21727   1.000
    N7      N    0.87606   0.70398   0.21730   1.000
    Zr8     Zr   0.25000   0.50001   0.49998   1.000
    O9      O    0.39697   0.44664   0.60536   1.000
    O10     O    0.24546   0.44588   0.61051   1.000
    O11     O    0.30613   0.58981   0.58072   1.000
    O12     O    0.33116   0.59348   0.58295   1.000
    O13     O    0.11190   0.59384   0.41370   1.000
    O14     O    0.25661   0.62121   0.56122   1.000
    O15     O    0.10865   0.62706   0.55870   1.000
    O16     O    0.28657   0.58706   0.56510   1.000
    O17     O    0.21338   0.41299   0.43488   1.000
    O18     O    0.28743   0.56166   0.41759   1.000
    O19     O    0.21249   0.43832   0.58237   1.000
    O20     O    0.39134   0.37285   0.44127   1.000
    O21     O    0.24339   0.37885   0.43873   1.000
    O22     O    0.38825   0.40622   0.58624   1.000
    O23     O    0.25448   0.55408   0.38944   1.000
    O24     O    0.16878   0.40660   0.41697   1.000
    O25     O    0.19382   0.41024   0.41925   1.000
    O26     O    0.10309   0.55343   0.39463   1.000
    Zr27    Zr   0.75001   0.49999   0.49995   1.000
    O28     O    0.74340   0.37878   0.43874   1.000
    O29     O    0.88810   0.40616   0.58626   1.000
    O30     O    0.89136   0.37294   0.44125   1.000
    O31     O    0.78752   0.56167   0.41759   1.000
    O32     O    0.71344   0.41294   0.43486   1.000
    O33     O    0.71258   0.43834   0.58236   1.000
    O34     O    0.78663   0.58701   0.56507   1.000
    O35     O    0.83123   0.59340   0.58298   1.000
    O36     O    0.74553   0.44592   0.61052   1.000
    O37     O    0.89692   0.44657   0.60533   1.000
    O38     O    0.80619   0.58976   0.58070   1.000
    O39     O    0.61176   0.59378   0.41367   1.000
    O40     O    0.75662   0.62114   0.56118   1.000
    O41     O    0.60867   0.62714   0.55864   1.000
    O42     O    0.60304   0.55336   0.39459   1.000
    O43     O    0.75455   0.55412   0.38944   1.000
    O44     O    0.66885   0.40651   0.41700   1.000
    O45     O    0.69388   0.41018   0.41924   1.000
    Zr46    Zr   0.50001   0.00000   0.99998   1.000
    O47     O    0.50646   0.12113   0.93876   1.000
    O48     O    0.35844   0.12702   0.94133   1.000
    O49     O    0.36168   0.09373   0.08626   1.000
    O50     O    0.64713   0.94669   0.89464   1.000
    O51     O    0.55616   0.08981   0.91935   1.000
    O52     O    0.49559   0.94615   0.88942   1.000
    O53     O    0.58119   0.09340   0.91698   1.000
    O54     O    0.64158   0.87298   0.05865   1.000
    O55     O    0.49355   0.87887   0.06121   1.000
    O56     O    0.63833   0.90628   0.91371   1.000
    O57     O    0.53735   0.06156   0.08239   1.000
    O58     O    0.53657   0.08704   0.93497   1.000
    O59     O    0.46266   0.93844   0.91758   1.000
    O60     O    0.46343   0.91296   0.06499   1.000
    O61     O    0.44385   0.91019   0.08061   1.000
    O62     O    0.50442   0.05385   0.11055   1.000
    O63     O    0.41882   0.90660   0.08299   1.000
    O64     O    0.35288   0.05331   0.10533   1.000
    Zr65    Zr   0.00000   0.00000   0.99999   1.000
    O66     O    0.99360   0.87890   0.06122   1.000
    O67     O    0.13829   0.90635   0.91368   1.000
    O68     O    0.14158   0.87302   0.05860   1.000
    O69     O    0.00441   0.05391   0.11054   1.000
    O70     O    0.85290   0.05324   0.10535   1.000
    O71     O    0.91889   0.90660   0.08298   1.000
    O72     O    0.94391   0.91021   0.08061   1.000
    O73     O    0.99560   0.94609   0.88944   1.000
    O74     O    0.08112   0.09339   0.91700   1.000
    O75     O    0.05610   0.08978   0.91937   1.000
    O76     O    0.14710   0.94676   0.89463   1.000
    O77     O    0.86172   0.09365   0.08631   1.000
    O78     O    0.00641   0.12110   0.93877   1.000
    O79     O    0.85843   0.12699   0.94138   1.000
    O80     O    0.96268   0.93838   0.91761   1.000
    O81     O    0.96349   0.91298   0.06499   1.000
    O82     O    0.03733   0.06162   0.08238   1.000
    O83     O    0.03652   0.08702   0.93499   1.000
loop_
    _geom_bond_atom_site_label_1
    _geom_bond_atom_site_label_2
    _geom_bond_distance
    _geom_bond_site_symmetry_2
    _ccdc_geom_bond_type
    Zr8    O9        2.92358      .   S
    N2     O9        5.12864      .   S
    Zr8    O10       1.98965      .   S
    N3     O10       3.89941      .   S
    Zr8    O11       1.99796      .   S
    N1     O11       3.88520      .   S
    Zr8    O12       2.19316      .   S
    N1     O12       3.78303      .   S
    Zr8    O13       2.95208      .   S
    N7     O13       5.11238  1_655   S
    Zr8    O14       2.09433      .   S
    N1     O14       3.92079      .   S
    Zr8    O15       3.13309      .   S
    N0     O15       5.19448  1_655   S
    Zr8    O16       1.73116      .   S
    N1     O16       4.11839      .   S
    Zr8    O17       1.73076      .   S
    N5     O17       4.11749      .   S
    Zr8    O18       1.69350      .   S
    N6     O18       4.04965      .   S
    Zr8    O19       1.69388      .   S
    N3     O19       4.05028      .   S
    Zr8    O20       3.13411      .   S
    N4     O20       5.19578      .   S
    Zr8    O21       2.09377      .   S
    N5     O21       3.92025      .   S
    Zr8    O22       2.95322      .   S
    N2     O22       5.11312      .   S
    Zr8    O23       1.98959      .   S
    N6     O23       3.89861      .   S
    Zr8    O24       2.19339      .   S
    N5     O24       3.78179      .   S
    Zr8    O25       1.99767      .   S
    N5     O25       3.88418      .   S
    Zr8    O26       2.92290      .   S
    N7     O26       5.12747  1_655   S
    Zr27   O28       2.09416      .   S
    N4     O28       3.92062      .   S
    Zr27   O29       2.95227      .   S
    N3     O29       5.11258  1_455   S
    Zr27   O30       3.13301      .   S
    N5     O30       5.19424  1_455   S
    Zr27   O31       1.69357      .   S
    N7     O31       4.05007      .   S
    Zr27   O32       1.73093      .   S
    N4     O32       4.11824      .   S
    Zr27   O33       1.69377      .   S
    N2     O33       4.04976      .   S
    Zr27   O34       1.73099      .   S
    N0     O34       4.11774      .   S
    Zr27   O35       2.19367      .   S
    N0     O35       3.78200      .   S
    Zr27   O36       1.98989      .   S
    N2     O36       3.89871      .   S
    Zr27   O37       2.92314      .   S
    N3     O37       5.12763  1_455   S
    Zr27   O38       1.99792      .   S
    N0     O38       3.88443      .   S
    Zr27   O39       2.95343      .   S
    N6     O39       5.11247      .   S
    Zr27   O40       2.09359      .   S
    N0     O40       3.92102      .   S
    Zr27   O41       3.13397      .   S
    N1     O41       5.19633      .   S
    Zr27   O42       2.92338      .   S
    N6     O42       5.12851      .   S
    Zr27   O43       1.98935      .   S
    N7     O43       3.89918      .   S
    Zr27   O44       2.19300      .   S
    N4     O44       3.78282      .   S
    Zr27   O45       1.99772      .   S
    N4     O45       3.88506      .   S
    Zr46   O47       2.09328      .   S
    N2     O47       3.91833      .   S
    Zr46   O48       3.13458      .   S
    N3     O48       5.19517      .   S
    Zr46   O49       2.95375  1_556   S
    N5     O49       5.11420      .   S
    Zr46   O50       2.92483  1_545   S
    N0     O50       5.12926      .   S
    Zr46   O51       1.99690      .   S
    N2     O51       3.88195      .   S
    Zr46   O52       1.98862  1_545   S
    N1     O52       3.89675      .   S
    Zr46   O53       2.19304      .   S
    N2     O53       3.77955      .   S
    Zr46   O54       3.13464  1_546   S
    N7     O54       5.19520      .   S
    Zr46   O55       2.09332  1_546   S
    N6     O55       3.91826      .   S
    Zr46   O56       2.95371  1_545   S
    N0     O56       5.11421      .   S
    Zr46   O57       1.69268  1_556   S
    N4     O57       4.04729      .   S
    Zr46   O58       1.72998      .   S
    N2     O58       4.11532      .   S
    Zr46   O59       1.69265  1_545   S
    N1     O59       4.04734      .   S
    Zr46   O60       1.72991  1_546   S
    N6     O60       4.11536      .   S
    Zr46   O61       1.99683  1_546   S
    N6     O61       3.88198      .   S
    Zr46   O62       1.98856  1_556   S
    N4     O62       3.89678      .   S
    Zr46   O63       2.19310  1_546   S
    N6     O63       3.77947      .   S
    Zr46   O64       2.92485  1_556   S
    N5     O64       5.12927      .   S
    Zr65   O66       2.09296  1_446   S
    N7     O66       3.91745      .   S
    Zr65   O67       2.95291  1_545   S
    N1     O67       5.11351      .   S
    Zr65   O68       3.13410  1_546   S
    N6     O68       5.19447      .   S
    Zr65   O69       1.98864  1_556   S
    N5     O69       3.89702      .   S
    Zr65   O70       2.92425  1_456   S
    N4     O70       5.12827      .   S
    Zr65   O71       2.19238  1_446   S
    N7     O71       3.77887      .   S
    Zr65   O72       1.99626  1_446   S
    N7     O72       3.88133      .   S
    Zr65   O73       1.98881  1_445   S
    N0     O73       3.89698      .   S
    Zr65   O74       2.19237      .   S
    N3     O74       3.77893      .   S
    Zr65   O75       1.99628      .   S
    N3     O75       3.88137      .   S
    Zr65   O76       2.92429  1_545   S
    N1     O76       5.12835      .   S
    Zr65   O77       2.95290  1_456   S
    N4     O77       5.11339      .   S
    Zr65   O78       2.09294      .   S
    N3     O78       3.91752      .   S
    Zr65   O79       3.13411  1_455   S
    N2     O79       5.19456      .   S
    Zr65   O80       1.69279  1_445   S
    N0     O80       4.04766      .   S
    Zr65   O81       1.72941  1_446   S
    N7     O81       4.11468      .   S
    Zr65   O82       1.69276  1_556   S
    N5     O82       4.04759      .   S
    Zr65   O83       1.72943      .   S
    N3     O83       4.11472      .   S
