# CIF file generated by openbabel 2.4.90, see http://openbabel.sf.net
data_I
_chemical_name_common ''
_cell_length_a 12.772
_cell_length_b 15.1
_cell_length_c 19.445
_cell_angle_alpha 90.08
_cell_angle_beta 90.028
_cell_angle_gamma 89.993
_space_group_name_H-M_alt 'P 1'
_space_group_name_Hall 'P 1'
loop_
    _symmetry_equiv_pos_as_xyz
    x,y,z
loop_
    _atom_site_label
    _atom_site_type_symbol
    _atom_site_fract_x
    _atom_site_fract_y
    _atom_site_fract_z
    _atom_site_occupancy
    H0      H    0.31413   0.05185   0.15490   1.000
    H1      H    0.42256   0.91906   0.18543   1.000
    H2      H    0.61962   0.09169   0.30592   1.000
    H3      H    0.50567   0.21913   0.26894   1.000
    H4      H    0.37687   0.15275   0.03591   1.000
    H5      H    0.50338   0.15068   0.93602   1.000
    H6      H    0.59325   0.41579   0.99142   1.000
    H7      H    0.45960   0.40934   0.08700   1.000
    H8      H    0.68601   0.55210   0.34500   1.000
    H9      H    0.57739   0.41926   0.31456   1.000
    H10     H    0.38040   0.59161   0.19411   1.000
    H11     H    0.49449   0.71910   0.23102   1.000
    H12     H    0.62325   0.65289   0.46374   1.000
    H13     H    0.49675   0.65067   0.56365   1.000
    H14     H    0.40653   0.91575   0.50892   1.000
    H15     H    0.54016   0.90943   0.41287   1.000
    H16     H    0.12361   0.84670   0.53678   1.000
    H17     H    0.99639   0.84921   0.43719   1.000
    H18     H    0.90673   0.58396   0.49160   1.000
    H19     H    0.00000   0.59012   0.58755   1.000
    H20     H    0.18651   0.94775   0.65523   1.000
    H21     H    0.07797   0.08077   0.68520   1.000
    H22     H    0.88014   0.90896   0.80540   1.000
    H23     H    0.99438   0.78127   0.76904   1.000
    H24     H    0.87658   0.34701   0.96355   1.000
    H25     H    0.00000   0.34931   0.06322   1.000
    H26     H    0.09305   0.08398   0.00817   1.000
    H27     H    0.95921   0.09033   0.91223   1.000
    H28     H    0.81358   0.44807   0.84484   1.000
    H29     H    0.92196   0.58103   0.81474   1.000
    H30     H    0.11977   0.40881   0.69448   1.000
    H31     H    0.00000   0.28122   0.73090   1.000
    H32     H    0.68584   0.94819   0.84508   1.000
    H33     H    0.57742   0.08098   0.81456   1.000
    H34     H    0.38035   0.90836   0.69407   1.000
    H35     H    0.49430   0.78091   0.73104   1.000
    H36     H    0.62306   0.84731   0.96406   1.000
    H37     H    0.49656   0.84938   0.06395   1.000
    H38     H    0.40676   0.58424   0.00859   1.000
    H39     H    0.54039   0.59070   0.91261   1.000
    H40     H    0.31396   0.44795   0.65499   1.000
    H41     H    0.42259   0.58078   0.68543   1.000
    H42     H    0.61957   0.40842   0.80587   1.000
    H43     H    0.50547   0.28093   0.76896   1.000
    H44     H    0.37670   0.34715   0.53623   1.000
    H45     H    0.50321   0.34936   0.43632   1.000
    H46     H    0.59347   0.08431   0.49109   1.000
    H47     H    0.45983   0.09063   0.58713   1.000
    H48     H    0.87637   0.15333   0.46318   1.000
    H49     H    0.00000   0.15082   0.56276   1.000
    H50     H    0.09322   0.41610   0.50836   1.000
    H51     H    0.95923   0.40994   0.41244   1.000
    H52     H    0.81346   0.05229   0.34476   1.000
    H53     H    0.92200   0.91927   0.31477   1.000
    H54     H    0.11983   0.09108   0.19459   1.000
    H55     H    0.00000   0.21876   0.23094   1.000
    H56     H    0.12343   0.65306   0.03641   1.000
    H57     H    0.99639   0.65076   0.93674   1.000
    H58     H    0.90686   0.91605   0.99180   1.000
    H59     H    0.00000   0.90970   0.08778   1.000
    H60     H    0.18639   0.55197   0.15514   1.000
    H61     H    0.07801   0.41901   0.18524   1.000
    H62     H    0.88019   0.59123   0.30549   1.000
    H63     H    0.99425   0.71882   0.26903   1.000
    C64     C    0.38351   0.05813   0.18717   1.000
    C65     C    0.44390   0.98457   0.20444   1.000
    C66     C    0.53082   0.99611   0.24741   1.000
    C67     C    0.55375   0.08136   0.27128   1.000
    C68     C    0.49069   0.15177   0.25136   1.000
    C69     C    0.42660   0.20939   0.02410   1.000
    C70     C    0.49609   0.20859   0.96908   1.000
    C71     C    0.55905   0.28286   0.95757   1.000
    C72     C    0.54550   0.35705   0.99978   1.000
    C73     C    0.47329   0.35334   0.05311   1.000
    C74     C    0.61660   0.55831   0.31276   1.000
    C75     C    0.55612   0.48474   0.29555   1.000
    C76     C    0.46918   0.49619   0.25260   1.000
    C77     C    0.44628   0.58136   0.22873   1.000
    C78     C    0.50944   0.65180   0.24860   1.000
    C79     C    0.57345   0.70948   0.47566   1.000
    C80     C    0.50396   0.70861   0.53074   1.000
    C81     C    0.44092   0.78283   0.54243   1.000
    C82     C    0.45437   0.85705   0.50038   1.000
    C83     C    0.52658   0.85342   0.44704   1.000
    C84     C    0.07373   0.79015   0.52489   1.000
    C85     C    0.00387   0.79117   0.46997   1.000
    C86     C    0.94085   0.71696   0.45825   1.000
    C87     C    0.95455   0.64265   0.50019   1.000
    C88     C    0.02704   0.64618   0.55344   1.000
    C89     C    0.11701   0.94171   0.68735   1.000
    C90     C    0.05657   0.00000   0.70432   1.000
    C91     C    0.96937   0.00000   0.74701   1.000
    C92     C    0.94625   0.91905   0.77098   1.000
    C93     C    0.00946   0.84852   0.75141   1.000
    C94     C    0.92637   0.29039   0.97533   1.000
    C95     C    0.99614   0.29129   0.03029   1.000
    C96     C    0.05907   0.21701   0.04187   1.000
    C97     C    0.04530   0.14274   0.99970   1.000
    C98     C    0.97291   0.14638   0.94646   1.000
    C99     C    0.88305   0.44192   0.81268   1.000
    C100    C    0.94338   0.51557   0.79565   1.000
    C101    C    0.00000   0.50417   0.75290   1.000
    C102    C    0.05369   0.41902   0.72893   1.000
    C103    C    0.99059   0.34853   0.74857   1.000
    C104    C    0.61646   0.94191   0.81282   1.000
    C105    C    0.55609   0.00000   0.79554   1.000
    C106    C    0.46914   0.00000   0.75259   1.000
    C107    C    0.44623   0.91869   0.72869   1.000
    C108    C    0.50928   0.84827   0.74862   1.000
    C109    C    0.57335   0.79067   0.97584   1.000
    C110    C    0.50385   0.79146   0.03090   1.000
    C111    C    0.44094   0.71718   0.04240   1.000
    C112    C    0.45448   0.64299   0.00000   1.000
    C113    C    0.52670   0.64670   0.94680   1.000
    C114    C    0.38337   0.44173   0.68722   1.000
    C115    C    0.44386   0.51530   0.70444   1.000
    C116    C    0.53080   0.50385   0.74739   1.000
    C117    C    0.55369   0.41867   0.77125   1.000
    C118    C    0.49053   0.34824   0.75138   1.000
    C119    C    0.42651   0.29056   0.52430   1.000
    C120    C    0.49601   0.29143   0.46924   1.000
    C121    C    0.55905   0.21721   0.45756   1.000
    C122    C    0.54562   0.14301   0.49962   1.000
    C123    C    0.47340   0.14663   0.55296   1.000
    C124    C    0.92624   0.20989   0.47507   1.000
    C125    C    0.99611   0.20886   0.52990   1.000
    C126    C    0.05912   0.28309   0.54172   1.000
    C127    C    0.04540   0.35740   0.49970   1.000
    C128    C    0.97291   0.35387   0.44654   1.000
    C129    C    0.88296   0.05834   0.31264   1.000
    C130    C    0.94340   0.98465   0.29567   1.000
    C131    C    0.00000   0.99591   0.25298   1.000
    C132    C    0.05372   0.08098   0.22901   1.000
    C133    C    0.99051   0.15152   0.24857   1.000
    C134    C    0.07362   0.70967   0.02464   1.000
    C135    C    0.00385   0.70876   0.96968   1.000
    C136    C    0.94090   0.78305   0.95810   1.000
    C137    C    0.95463   0.85730   0.00025   1.000
    C138    C    0.02703   0.85366   0.05353   1.000
    C139    C    0.11692   0.55812   0.18730   1.000
    C140    C    0.05659   0.48447   0.20434   1.000
    C141    C    0.96940   0.49587   0.24705   1.000
    C142    C    0.94627   0.58102   0.27104   1.000
    C143    C    0.00937   0.65151   0.25140   1.000
    N144    N    0.40654   0.14060   0.20986   1.000
    N145    N    0.41617   0.27999   0.06629   1.000
    N146    N    0.59363   0.64071   0.29006   1.000
    N147    N    0.58378   0.78011   0.43369   1.000
    N148    N    0.08431   0.71945   0.56678   1.000
    N149    N    0.09387   0.85941   0.71017   1.000
    N150    N    0.91576   0.21971   0.93326   1.000
    N151    N    0.90622   0.35954   0.78986   1.000
    N152    N    0.59344   0.85944   0.79012   1.000
    N153    N    0.58379   0.72006   0.93370   1.000
    N154    N    0.40634   0.35933   0.70992   1.000
    N155    N    0.41619   0.21994   0.56630   1.000
    N156    N    0.91565   0.28060   0.43319   1.000
    N157    N    0.90610   0.14063   0.28981   1.000
    N158    N    0.08421   0.78034   0.06673   1.000
    N159    N    0.09374   0.64050   0.21012   1.000
loop_
    _geom_bond_atom_site_label_1
    _geom_bond_atom_site_label_2
    _geom_bond_distance
    _geom_bond_site_symmetry_2
    _ccdc_geom_bond_type
    C112   H38       1.08956      .   S
    C112   C111      1.40072      .   S
    C112   C113      1.38754  1_554   S
    C137   C138      1.38945  1_655   S
    C137   C136      1.39889  1_554   S
    C137   H58       1.08920  1_554   S
    H26    C97       1.08924  1_554   S
    C69    H4        1.09012      .   S
    C69    N145      1.35090      .   S
    C69    C70       1.39043  1_554   S
    C134   H56       1.08993      .   S
    C134   N158      1.35060      .   S
    C134   C135      1.39122  1_554   S
    C95    C96       1.39834  1_655   S
    C95    H25       1.08548  1_655   S
    C95    C94       1.39114  1_554   S
    C110   C111      1.39821      .   S
    C110   H37       1.08855      .   S
    C110   C109      1.39109  1_554   S
    C96    C97       1.39941  1_554   S
    C73    N145      1.35118      .   S
    C73    H7        1.08549      .   S
    C73    C72       1.38937  1_554   S
    C138   N158      1.35111      .   S
    C138   H59       1.13027      .   S
    H0     C64       1.08964      .   S
    H60    C139      1.08973      .   S
    H61    C140      1.09041      .   S
    H1     C65       1.09012      .   S
    C64    C65       1.39359  1_545   S
    C64    N144      1.35287      .   S
    C139   C140      1.39344      .   S
    C139   N159      1.35291      .   S
    H10    C77       1.08856      .   S
    H54    C132      1.08864      .   S
    C140   C141      1.39993  1_455   S
    C65    C66       1.39993      .   S
    N144   C68       1.35413      .   S
    N159   C143      1.35411      .   S
    C77    C78       1.38914      .   S
    C77    C76       1.39880      .   S
    C132   C133      1.38918  1_455   S
    C132   C131      1.52975  1_545   S
    H55    C133      1.07902  1_455   S
    H11    C78       1.08953      .   S
    C141   C142      1.39872      .   S
    C66    C67       1.39883  1_565   S
    C133   N157      1.35416      .   S
    C78    N146      1.35414      .   S
    C68    H3        1.08954      .   S
    C68    C67       1.38918      .   S
    C143   H63       1.08942  1_455   S
    C143   C142      1.38920  1_455   S
    C76    C75       1.39994      .   S
    C131   C130      1.11429  1_455   S
    C142   H62       1.08867      .   S
    C67    H2        1.08856      .   S
    N157   C129      1.35288      .   S
    N146   C74       1.35286      .   S
    C75    C74       1.39355      .   S
    C75    H9        1.09033      .   S
    C130   C129      1.39346  1_565   S
    C130   H53       1.09011      .   S
    C129   H52       1.08962      .   S
    C74    H8        1.08965      .   S
    H51    C128      1.09019      .   S
    H15    C83       1.09022      .   S
    N156   C128      1.35107      .   S
    N156   C124      1.35055      .   S
    N147   C83       1.35116      .   S
    N147   C79       1.35034      .   S
    H45    C120      1.08858      .   S
    H17    C85       1.08850  1_655   S
    C128   C127      1.38834  1_655   S
    C83    C82       1.38932      .   S
    C121   C120      1.39825      .   S
    C121   C122      1.39881      .   S
    C86    C85       1.39829  1_655   S
    C86    C87       1.39894      .   S
    H48    C124      1.08989      .   S
    H12    C79       1.08995      .   S
    C120   C119      1.39116      .   S
    C85    C84       1.39136      .   S
    C124   C125      1.39010      .   S
    C79    C80       1.39141      .   S
    H46    C122      1.08906      .   S
    H18    C87       1.08913      .   S
    C122   C123      1.38937      .   S
    C127   H50       1.08932      .   S
    C127   C126      1.39994      .   S
    C87    C88       1.38958  1_655   S
    C82    H14       1.08908      .   S
    C82    C81       1.39885      .   S
    C119   H44       1.09002      .   S
    C119   N155      1.35059      .   S
    C84    H16       1.08991      .   S
    C84    N148      1.35054      .   S
    C125   C126      1.39857  1_655   S
    C125   H49       1.08644  1_655   S
    C80    C81       1.39826      .   S
    C80    H13       1.08856      .   S
    C123   N155      1.35114      .   S
    C123   H47       1.09016      .   S
    C88    N148      1.35106      .   S
    C88    H19       1.13041      .   S
    H40    C114      1.08954      .   S
    H20    C89       1.08960      .   S
    H21    C90       1.30454      .   S
    H41    C115      1.09035      .   S
    C114   C115      1.39356      .   S
    C114   N154      1.35288      .   S
    C89    C90       1.21606  1_565   S
    C89    N149      1.35285      .   S
    H34    C107      1.08845      .   S
    H30    C102      1.08857      .   S
    C90    C91       1.38938  1_455   S
    C115   C116      1.39992      .   S
    N154   C118      1.35415      .   S
    N149   C93       1.35412      .   S
    C107   C108      1.38919      .   S
    C107   C106      1.34443  1_565   S
    C102   C103      1.38921  1_455   S
    C102   C101      1.52940      .   S
    H31    C103      1.07915  1_455   S
    H35    C108      1.08952      .   S
    C91    C92       1.34171  1_545   S
    C116   C117      1.39877      .   S
    C103   N151      1.35416      .   S
    C108   N152      1.35417      .   S
    C118   H43       1.08954      .   S
    C118   C117      1.38913      .   S
    C93    H23       1.08941  1_455   S
    C93    C92       1.38922  1_455   S
    C106   C105      1.38918      .   S
    C101   C100      1.11521  1_455   S
    C92    H22       1.08863      .   S
    C117   H42       1.08856      .   S
    N151   C99       1.35288      .   S
    N152   C104      1.35289      .   S
    C105   C104      1.21543  1_545   S
    C105   H33       1.30579      .   S
    C100   C99       1.39341      .   S
    C100   H29       1.09036      .   S
    C99    H28       1.08970      .   S
    C104   H32       1.08953      .   S
    H27    C98       1.09013      .   S
    H39    C113      1.08911      .   S
    N150   C98       1.35106      .   S
    N150   C94       1.35056      .   S
    N153   C113      1.35085      .   S
    N153   C109      1.35038      .   S
    H5     C70       1.08863      .   S
    H57    C135      1.08851  1_655   S
    C98    C97       1.38878  1_655   S
    C71    C70       1.39832      .   S
    C71    C72       1.39858      .   S
    C136   C135      1.39835  1_655   S
    H24    C94       1.08993      .   S
    H36    C109      1.08996      .   S
    H6     C72       1.08894      .   S
