# CIF file generated by openbabel 2.4.90, see http://openbabel.sf.net
data_I
_chemical_name_common ''
_cell_length_a 12.772
_cell_length_b 15.1
_cell_length_c 19.445
_cell_angle_alpha 90.08
_cell_angle_beta 90.028
_cell_angle_gamma 89.993
_space_group_name_H-M_alt 'P 1'
_space_group_name_Hall 'P 1'
loop_
    _symmetry_equiv_pos_as_xyz
    x,y,z
loop_
    _atom_site_label
    _atom_site_type_symbol
    _atom_site_fract_x
    _atom_site_fract_y
    _atom_site_fract_z
    _atom_site_occupancy
    Cd0     Cd   0.32050   0.26776   0.17048   1.000
    Cd1     Cd   0.82011   0.23227   0.82897   1.000
    Cd2     Cd   0.17999   0.73200   0.67104   1.000
    Cd3     Cd   0.32037   0.23206   0.67044   1.000
    Cd4     Cd   0.67946   0.73229   0.82951   1.000
    Cd5     Cd   0.17986   0.76777   0.17100   1.000
    Cd6     Cd   0.81997   0.26804   0.32894   1.000
    Cd7     Cd   0.67959   0.76798   0.32955   1.000
    C8      C    0.59545   0.91853   0.27146   1.000
    C9      C    0.64541   0.28178   0.90480   1.000
    C10     C    0.40448   0.41855   0.22857   1.000
    C11     C    0.35457   0.78170   0.59520   1.000
    O12     O    0.15856   0.57011   0.67960   1.000
    O13     O    0.41793   0.15625   0.75792   1.000
    O14     O    0.34288   0.06993   0.67801   1.000
    O15     O    0.34986   0.78518   0.13595   1.000
    C16     C    0.85427   0.71819   0.40557   1.000
    C17     C    0.90465   0.08186   0.77072   1.000
    C18     C    0.14562   0.21812   0.09459   1.000
    C19     C    0.09518   0.58187   0.72918   1.000
    C20     C    0.40453   0.08152   0.72850   1.000
    C21     C    0.35456   0.71826   0.09519   1.000
    C22     C    0.59549   0.58148   0.77143   1.000
    C23     C    0.64540   0.21834   0.40479   1.000
    C24     C    0.14570   0.28184   0.59440   1.000
    C25     C    0.09532   0.91817   0.22927   1.000
    C26     C    0.85434   0.78192   0.90539   1.000
    C27     C    0.90478   0.41817   0.27079   1.000
    O28     O    0.58204   0.84379   0.24207   1.000
    O29     O    0.65708   0.93011   0.32199   1.000
    O30     O    0.65012   0.21485   0.86405   1.000
    O31     O    0.71109   0.34417   0.90538   1.000
    O32     O    0.41795   0.34387   0.25789   1.000
    O33     O    0.34278   0.43003   0.17809   1.000
    O34     O    0.34997   0.71481   0.63586   1.000
    O35     O    0.28883   0.84405   0.59470   1.000
    O36     O    0.84869   0.78580   0.36568   1.000
    O37     O    0.78939   0.65525   0.40534   1.000
    O38     O    0.91994   0.15681   0.74226   1.000
    O39     O    0.84105   0.07020   0.82011   1.000
    O40     O    0.15121   0.28563   0.13472   1.000
    O41     O    0.21053   0.15518   0.09450   1.000
    O42     O    0.08012   0.65684   0.75780   1.000
    O43     O    0.28889   0.65587   0.09462   1.000
    O44     O    0.58202   0.65616   0.74211   1.000
    O45     O    0.65719   0.57000   0.82191   1.000
    O46     O    0.65000   0.28522   0.36412   1.000
    O47     O    0.71115   0.15599   0.40527   1.000
    O48     O    0.15129   0.21422   0.63426   1.000
    O49     O    0.21056   0.34480   0.59460   1.000
    O50     O    0.08003   0.84323   0.25774   1.000
    O51     O    0.15891   0.92983   0.17987   1.000
    O52     O    0.84877   0.71443   0.86524   1.000
    O53     O    0.78941   0.84485   0.90541   1.000
    O54     O    0.91986   0.34320   0.24216   1.000
    O55     O    0.84137   0.42993   0.32031   1.000
    Ts56    Ts   0.34918   0.22537   0.18361   1.000
    Ts57    Ts   0.35239   0.27183   0.13575   1.000
    Ts58    Ts   0.85199   0.22808   0.86373   1.000
    Ts59    Ts   0.84881   0.27469   0.81593   1.000
    Ts60    Ts   0.14810   0.72782   0.63629   1.000
    Ts61    Ts   0.15128   0.77447   0.68408   1.000
    Ts62    Ts   0.34903   0.27448   0.68360   1.000
    Ts63    Ts   0.35231   0.22802   0.63573   1.000
    Ts64    Ts   0.65079   0.77467   0.81638   1.000
    Ts65    Ts   0.64757   0.72821   0.86424   1.000
    Ts66    Ts   0.14798   0.77196   0.13624   1.000
    Ts67    Ts   0.15115   0.72535   0.18404   1.000
    Ts68    Ts   0.85187   0.27223   0.36369   1.000
    Ts69    Ts   0.84868   0.22557   0.31590   1.000
    Ts70    Ts   0.65093   0.72556   0.31639   1.000
    Ts71    Ts   0.64765   0.77202   0.36426   1.000
    Og72    Og   0.57390   0.94439   0.26344   1.000
    Og73    Og   0.61662   0.28214   0.92239   1.000
    Og74    Og   0.42604   0.44443   0.23658   1.000
    Og75    Og   0.38336   0.78208   0.57761   1.000
    Og76    Og   0.88313   0.71778   0.42313   1.000
    Og77    Og   0.92622   0.05458   0.76282   1.000
    Og78    Og   0.11677   0.21775   0.07702   1.000
    Og79    Og   0.06346   0.55597   0.73709   1.000
    Og80    Og   0.42607   0.05434   0.73653   1.000
    Og81    Og   0.38335   0.71790   0.07759   1.000
    Og82    Og   0.57393   0.55561   0.76342   1.000
    Og83    Og   0.61662   0.21796   0.42238   1.000
    Og84    Og   0.11684   0.28226   0.57684   1.000
    Og85    Og   0.06354   0.94408   0.23717   1.000
    Og86    Og   0.88319   0.78230   0.92296   1.000
    Og87    Og   0.92632   0.44407   0.26288   1.000
loop_
    _geom_bond_atom_site_label_1
    _geom_bond_atom_site_label_2
    _geom_bond_distance
    _geom_bond_site_symmetry_2
    _ccdc_geom_bond_type
    O41    C18       1.26112      .   S
    C18    O40       1.28491      .   S
    O43    C21       1.26160      .   S
    C21    O15       1.28483      .   S
    O40    Cd0       2.28696      .   S
    O15    Cd5       2.29129      .   S
    Cd0    O33       2.47102      .   S
    Cd0    O32       2.39833      .   S
    Cd5    O51       2.46742      .   S
    Cd5    O50       2.40105      .   S
    O33    C10       1.27054      .   S
    O51    C25       1.27070      .   S
    C10    O32       1.27585      .   S
    C25    O50       1.27552      .   S
    O28    C8        1.27577      .   S
    O28    Cd7       2.39987      .   S
    O54    C27       1.27547      .   S
    O54    Cd6       2.40226      .   S
    C27    O55       1.27078      .   S
    C8     O29       1.27064      .   S
    O55    Cd6       2.46571      .   S
    O29    Cd7       2.46950      .   S
    Cd6    O46       2.29102      .   S
    Cd7    O36       2.28661      .   S
    O46    C23       1.28497      .   S
    O36    C16       1.28492      .   S
    C23    O47       1.26150      .   S
    O37    C16       1.26105      .   S
    C24    O49       1.26103      .   S
    C24    O48       1.28481      .   S
    O35    C11       1.26152      .   S
    C11    O34       1.28494      .   S
    O48    Cd3       2.28671      .   S
    O34    Cd2       2.29113      .   S
    Cd3    O14       2.46950      .   S
    Cd3    O13       2.39991      .   S
    Cd2    O12       2.46572      .   S
    Cd2    O42       2.40188      .   S
    O14    C20       1.27017      .   S
    O12    C19       1.27140      .   S
    C20    O13       1.27599      .   S
    C19    O42       1.27534      .   S
    O44    C22       1.27591      .   S
    O44    Cd4       2.39820      .   S
    O38    C17       1.27553      .   S
    O38    Cd1       2.40068      .   S
    C17    O39       1.27063      .   S
    C22    O45       1.27053      .   S
    O39    Cd1       2.46759      .   S
    O45    Cd4       2.47128      .   S
    Cd1    O30       2.29138      .   S
    Cd4    O52       2.28696      .   S
    O30    C9        1.28479      .   S
    O52    C26       1.28488      .   S
    C9     O31       1.26159      .   S
    C26    O53       1.26113      .   S
    Cd0    Ts56      0.78053      .   S
    Cd0    Ts57      0.79129      .   S
    Cd1    Ts58      0.79158      .   S
    Cd1    Ts59      0.78082      .   S
    Cd2    Ts60      0.79134      .   S
    Cd2    Ts61      0.78075      .   S
    Cd3    Ts62      0.78058      .   S
    Cd3    Ts63      0.79113      .   S
    Cd4    Ts64      0.78054      .   S
    Cd4    Ts65      0.79129      .   S
    Cd5    Ts66      0.79148      .   S
    Cd5    Ts67      0.78084      .   S
    Cd6    Ts68      0.79129      .   S
    Cd6    Ts69      0.78077      .   S
    Cd7    Ts70      0.78058      .   S
    Cd7    Ts71      0.79111      .   S
    C8     Og72      0.50257      .   S
    C9     Og73      0.50231      .   S
    C10    Og74      0.50264      .   S
    C11    Og75      0.50228      .   S
    C16    Og76      0.50237      .   S
    C17    Og77      0.51881      .   S
    C18    Og78      0.50243      .   S
    C19    Og79      0.58403      .   S
    C20    Og80      0.51816      .   S
    C21    Og81      0.50243      .   S
    C22    Og82      0.50264      .   S
    C23    Og83      0.50229      .   S
    C24    Og84      0.50237      .   S
    C25    Og85      0.58418      .   S
    C26    Og86      0.50244      .   S
    C27    Og87      0.50259      .   S
