# CIF file generated by openbabel 2.4.90, see http://openbabel.sf.net
data_I
_chemical_name_common ''
_cell_length_a 12.772
_cell_length_b 15.1
_cell_length_c 19.445
_cell_angle_alpha 90.08
_cell_angle_beta 90.028
_cell_angle_gamma 89.993
_space_group_name_H-M_alt 'P 1'
_space_group_name_Hall 'P 1'
loop_
    _symmetry_equiv_pos_as_xyz
    x,y,z
loop_
    _atom_site_label
    _atom_site_type_symbol
    _atom_site_fract_x
    _atom_site_fract_y
    _atom_site_fract_z
    _atom_site_occupancy
    C0      C    0.59545   0.91853   0.27146   1.000
    C1      C    0.64541   0.28178   0.90480   1.000
    C2      C    0.40448   0.41855   0.22857   1.000
    C3      C    0.35457   0.78170   0.59520   1.000
    C4      C    0.85427   0.71819   0.40557   1.000
    C5      C    0.90465   0.08186   0.77072   1.000
    C6      C    0.14562   0.21812   0.09459   1.000
    C7      C    0.09518   0.58187   0.72918   1.000
    C8      C    0.40453   0.08152   0.72850   1.000
    C9      C    0.35456   0.71826   0.09519   1.000
    C10     C    0.59549   0.58148   0.77143   1.000
    C11     C    0.64540   0.21834   0.40479   1.000
    C12     C    0.14570   0.28184   0.59440   1.000
    C13     C    0.09532   0.91817   0.22927   1.000
    C14     C    0.85434   0.78192   0.90539   1.000
    C15     C    0.90478   0.41817   0.27079   1.000
