# CIF file generated by openbabel 2.4.90, see http://openbabel.sf.net
data_I
_chemical_name_common ''
_cell_length_a 12.772
_cell_length_b 15.1
_cell_length_c 19.445
_cell_angle_alpha 90.08
_cell_angle_beta 90.028
_cell_angle_gamma 89.993
_space_group_name_H-M_alt 'P 1'
_space_group_name_Hall 'P 1'
loop_
    _symmetry_equiv_pos_as_xyz
    x,y,z
loop_
    _atom_site_label
    _atom_site_type_symbol
    _atom_site_fract_x
    _atom_site_fract_y
    _atom_site_fract_z
    _atom_site_occupancy
    Zr0     Zr   0.67959   0.76798   0.32955   1.000
    Zr1     Zr   0.32050   0.26776   0.17048   1.000
    Zr2     Zr   0.82011   0.23227   0.82897   1.000
    Zr3     Zr   0.17999   0.73200   0.67104   1.000
    Zr4     Zr   0.32037   0.23206   0.67044   1.000
    Zr5     Zr   0.67946   0.73229   0.82951   1.000
    Zr6     Zr   0.17986   0.76777   0.17100   1.000
    Zr7     Zr   0.81997   0.26804   0.32894   1.000
    Zr8     Zr   0.59545   0.91853   0.27146   1.000
    Zr9     Zr   0.64541   0.28178   0.90480   1.000
    Zr10    Zr   0.40448   0.41855   0.22857   1.000
    Zr11    Zr   0.35457   0.78170   0.59520   1.000
    Zr12    Zr   0.85427   0.71819   0.40557   1.000
    Zr13    Zr   0.90465   0.08186   0.77072   1.000
    Zr14    Zr   0.14562   0.21812   0.09459   1.000
    Zr15    Zr   0.09518   0.58187   0.72918   1.000
    Zr16    Zr   0.40453   0.08152   0.72850   1.000
    Zr17    Zr   0.35456   0.71826   0.09519   1.000
    Zr18    Zr   0.59549   0.58148   0.77143   1.000
    Zr19    Zr   0.64540   0.21834   0.40479   1.000
    Zr20    Zr   0.14570   0.28184   0.59440   1.000
    Zr21    Zr   0.09532   0.91817   0.22927   1.000
    Zr22    Zr   0.85434   0.78192   0.90539   1.000
    Zr23    Zr   0.90478   0.41817   0.27079   1.000
    Zr24    Zr   0.58204   0.84379   0.24207   1.000
    Zr25    Zr   0.65708   0.93011   0.32199   1.000
    Zr26    Zr   0.65012   0.21485   0.86405   1.000
    Zr27    Zr   0.71109   0.34417   0.90538   1.000
    Zr28    Zr   0.41795   0.34387   0.25789   1.000
    Zr29    Zr   0.34278   0.43003   0.17809   1.000
    Zr30    Zr   0.34997   0.71481   0.63586   1.000
    Zr31    Zr   0.28883   0.84405   0.59470   1.000
    Zr32    Zr   0.84869   0.78580   0.36568   1.000
    Zr33    Zr   0.78939   0.65525   0.40534   1.000
    Zr34    Zr   0.91994   0.15681   0.74226   1.000
    Zr35    Zr   0.84105   0.07020   0.82011   1.000
    Zr36    Zr   0.15121   0.28563   0.13472   1.000
    Zr37    Zr   0.21053   0.15518   0.09450   1.000
    Zr38    Zr   0.08012   0.65684   0.75780   1.000
    Zr39    Zr   0.15856   0.57011   0.67960   1.000
    Zr40    Zr   0.41793   0.15625   0.75792   1.000
    Zr41    Zr   0.34288   0.06993   0.67801   1.000
    Zr42    Zr   0.34986   0.78518   0.13595   1.000
    Zr43    Zr   0.28889   0.65587   0.09462   1.000
    Zr44    Zr   0.58202   0.65616   0.74211   1.000
    Zr45    Zr   0.65719   0.57000   0.82191   1.000
    Zr46    Zr   0.65000   0.28522   0.36412   1.000
    Zr47    Zr   0.71115   0.15599   0.40527   1.000
    Zr48    Zr   0.15129   0.21422   0.63426   1.000
    Zr49    Zr   0.21056   0.34480   0.59460   1.000
    Zr50    Zr   0.08003   0.84323   0.25774   1.000
    Zr51    Zr   0.15891   0.92983   0.17987   1.000
    Zr52    Zr   0.84877   0.71443   0.86524   1.000
    Zr53    Zr   0.78941   0.84485   0.90541   1.000
    Zr54    Zr   0.91986   0.34320   0.24216   1.000
    Zr55    Zr   0.84137   0.42993   0.32031   1.000
    O56     O    0.17808   0.18665   0.09454   1.000
    O57     O    0.14842   0.25187   0.11465   1.000
    O58     O    0.32172   0.68706   0.09490   1.000
    O59     O    0.35221   0.75172   0.11557   1.000
    O60     O    0.23586   0.27669   0.15260   1.000
    O61     O    0.26486   0.77648   0.15348   1.000
    O62     O    0.33164   0.34889   0.17428   1.000
    O63     O    0.36923   0.30581   0.21418   1.000
    O64     O    0.16939   0.84880   0.17544   1.000
    O65     O    0.12995   0.80550   0.21437   1.000
    O66     O    0.37363   0.42429   0.20333   1.000
    O67     O    0.12711   0.92400   0.20457   1.000
    O68     O    0.41122   0.38121   0.24323   1.000
    O69     O    0.08767   0.88070   0.24351   1.000
    O70     O    0.58874   0.88116   0.25676   1.000
    O71     O    0.63081   0.80589   0.28581   1.000
    O72     O    0.91232   0.38068   0.25648   1.000
    O73     O    0.86992   0.30562   0.28555   1.000
    O74     O    0.87307   0.42405   0.29555   1.000
    O75     O    0.62626   0.92432   0.29672   1.000
    O76     O    0.83067   0.34898   0.32462   1.000
    O77     O    0.66833   0.84905   0.32577   1.000
    O78     O    0.73499   0.27663   0.34653   1.000
    O79     O    0.76414   0.77689   0.34762   1.000
    O80     O    0.64770   0.25178   0.38445   1.000
    O81     O    0.85148   0.75199   0.38562   1.000
    O82     O    0.67827   0.18716   0.40503   1.000
    O83     O    0.82183   0.68672   0.40546   1.000
    O84     O    0.17813   0.31332   0.59450   1.000
    O85     O    0.14850   0.24803   0.61433   1.000
    O86     O    0.32170   0.81287   0.59495   1.000
    O87     O    0.35227   0.74826   0.61553   1.000
    O88     O    0.23583   0.22314   0.65235   1.000
    O89     O    0.26498   0.72341   0.65345   1.000
    O90     O    0.33163   0.15100   0.67422   1.000
    O91     O    0.36915   0.19415   0.71418   1.000
    O92     O    0.16928   0.65106   0.67532   1.000
    O93     O    0.13006   0.69442   0.71442   1.000
    O94     O    0.37370   0.07572   0.70325   1.000
    O95     O    0.12687   0.57599   0.70439   1.000
    O96     O    0.41123   0.11888   0.74321   1.000
    O97     O    0.08765   0.61935   0.74349   1.000
    O98     O    0.58876   0.61882   0.75677   1.000
    O99     O    0.63074   0.69422   0.78581   1.000
    O100    O    0.91230   0.11934   0.75649   1.000
    O101    O    0.87002   0.19454   0.78562   1.000
    O102    O    0.87285   0.07603   0.79541   1.000
    O103    O    0.62634   0.57574   0.79667   1.000
    O104    O    0.83058   0.15123   0.82454   1.000
    O105    O    0.66833   0.65114   0.82571   1.000
    O106    O    0.73511   0.22356   0.84651   1.000
    O107    O    0.76412   0.72336   0.84738   1.000
    O108    O    0.64776   0.24831   0.88443   1.000
    O109    O    0.85156   0.74818   0.88531   1.000
    O110    O    0.67825   0.31297   0.90509   1.000
    O111    O    0.82187   0.81339   0.90540   1.000
    N112    N    0.03311   0.56925   0.22861   1.000
    O113    O    0.98510   0.51314   0.24377   1.000
    O114    O    0.08496   0.63669   0.20959   1.000
    N115    N    0.01111   0.71765   0.51266   1.000
    O116    O    0.95433   0.71761   0.47229   1.000
    O117    O    0.07163   0.72169   0.56579   1.000
    N118    N    0.01109   0.78224   0.01257   1.000
    O119    O    0.95436   0.78236   0.97216   1.000
    O120    O    0.07156   0.77814   0.06572   1.000
    N121    N    0.48498   0.28198   0.01203   1.000
    O122    O    0.54360   0.28215   0.97161   1.000
    O123    O    0.42666   0.27792   0.06521   1.000
    N124    N    0.98444   0.21781   0.98741   1.000
    O125    O    0.04339   0.21769   0.02782   1.000
    O126    O    0.92619   0.22190   0.93426   1.000
    N127    N    0.53295   0.56952   0.27130   1.000
    O128    O    0.48489   0.51344   0.25594   1.000
    O129    O    0.58478   0.63693   0.29055   1.000
    N130    N    0.03315   0.92874   0.72861   1.000
    O131    O    0.08504   0.86222   0.70961   1.000
    O132    O    0.98508   0.98484   0.74374   1.000
    N133    N    0.96320   0.06934   0.27137   1.000
    O134    O    0.00543   0.01319   0.25625   1.000
    O135    O    0.91312   0.13684   0.29037   1.000
    N136    N    0.46712   0.06943   0.22867   1.000
    O137    O    0.41532   0.13680   0.20942   1.000
    O138    O    0.51513   0.01337   0.24405   1.000
    N139    N    0.98443   0.28239   0.48729   1.000
    O140    O    0.04342   0.28243   0.52767   1.000
    O141    O    0.92612   0.27836   0.43418   1.000
    N142    N    0.96322   0.43079   0.77136   1.000
    O143    O    0.91320   0.36335   0.79039   1.000
    O144    O    0.00541   0.48690   0.75620   1.000
    N145    N    0.46702   0.43052   0.72868   1.000
    O146    O    0.41519   0.36311   0.70943   1.000
    O147    O    0.51508   0.48659   0.74405   1.000
    N148    N    0.51499   0.71807   0.98789   1.000
    O149    O    0.57331   0.72212   0.93474   1.000
    O150    O    0.45637   0.71789   0.02834   1.000
    N151    N    0.51497   0.78202   0.48791   1.000
    O152    O    0.45636   0.78214   0.52836   1.000
    O153    O    0.57333   0.77803   0.43477   1.000
    N154    N    0.53286   0.92868   0.77131   1.000
    O155    O    0.58465   0.86227   0.79056   1.000
    O156    O    0.48485   0.98472   0.75593   1.000
    N157    N    0.48500   0.21802   0.51208   1.000
    O158    O    0.54361   0.21790   0.47163   1.000
    O159    O    0.42664   0.22201   0.56522   1.000
loop_
    _geom_bond_atom_site_label_1
    _geom_bond_atom_site_label_2
    _geom_bond_distance
    _geom_bond_site_symmetry_2
    _ccdc_geom_bond_type
    Zr37   O56       0.63056      .   S
    Zr14   O56       0.63056      .   S
    Zr14   O57       0.64246      .   S
    Zr36   O57       0.64246      .   S
    Zr43   O58       0.63080      .   S
    Zr17   O58       0.63080      .   S
    Zr17   O59       0.64242      .   S
    Zr42   O59       0.64242      .   S
    Zr36   O60       1.14348      .   S
    Zr1    O60       1.14348      .   S
    Zr42   O61       1.14564      .   S
    Zr6    O61       1.14564      .   S
    Zr1    O62       1.23551      .   S
    Zr29   O62       1.23551      .   S
    Zr1    O63       1.19916      .   S
    Zr28   O63       1.19916      .   S
    Zr6    O64       1.23371      .   S
    Zr51   O64       1.23371      .   S
    Zr6    O65       1.20052      .   S
    Zr50   O65       1.20052      .   S
    Zr29   O66       0.63527      .   S
    Zr10   O66       0.63527      .   S
    Zr51   O67       0.63535      .   S
    Zr21   O67       0.63535      .   S
    Zr10   O68       0.63792      .   S
    Zr28   O68       0.63792      .   S
    Zr21   O69       0.63776      .   S
    Zr50   O69       0.63776      .   S
    Zr24   O70       0.63788      .   S
    Zr8    O70       0.63788      .   S
    Zr24   O71       1.19993      .   S
    Zr0    O71       1.19993      .   S
    Zr54   O72       0.63774      .   S
    Zr23   O72       0.63774      .   S
    Zr54   O73       1.20113      .   S
    Zr7    O73       1.20113      .   S
    Zr23   O74       0.63539      .   S
    Zr55   O74       0.63539      .   S
    Zr8    O75       0.63532      .   S
    Zr25   O75       0.63532      .   S
    Zr55   O76       1.23285      .   S
    Zr7    O76       1.23285      .   S
    Zr25   O77       1.23475      .   S
    Zr0    O77       1.23475      .   S
    Zr7    O78       1.14551      .   S
    Zr46   O78       1.14551      .   S
    Zr0    O79       1.14330      .   S
    Zr32   O79       1.14330      .   S
    Zr46   O80       0.64248      .   S
    Zr19   O80       0.64248      .   S
    Zr32   O81       0.64246      .   S
    Zr12   O81       0.64246      .   S
    Zr19   O82       0.63075      .   S
    Zr47   O82       0.63075      .   S
    Zr33   O83       0.63053      .   S
    Zr12   O83       0.63053      .   S
    Zr20   O84       0.63052      .   S
    Zr49   O84       0.63052      .   S
    Zr20   O85       0.64241      .   S
    Zr48   O85       0.64241      .   S
    Zr31   O86       0.63076      .   S
    Zr11   O86       0.63076      .   S
    Zr11   O87       0.64247      .   S
    Zr30   O87       0.64247      .   S
    Zr48   O88       1.14336      .   S
    Zr4    O88       1.14336      .   S
    Zr30   O89       1.14557      .   S
    Zr3    O89       1.14557      .   S
    Zr4    O90       1.23475      .   S
    Zr41   O90       1.23475      .   S
    Zr4    O91       1.19996      .   S
    Zr40   O91       1.19996      .   S
    Zr3    O92       1.23286      .   S
    Zr39   O92       1.23286      .   S
    Zr3    O93       1.20094      .   S
    Zr38   O93       1.20094      .   S
    Zr41   O94       0.63509      .   S
    Zr16   O94       0.63509      .   S
    Zr39   O95       0.63570      .   S
    Zr15   O95       0.63570      .   S
    Zr16   O96       0.63800      .   S
    Zr40   O96       0.63800      .   S
    Zr15   O97       0.63767      .   S
    Zr38   O97       0.63767      .   S
    Zr44   O98       0.63796      .   S
    Zr18   O98       0.63796      .   S
    Zr44   O99       1.19910      .   S
    Zr5    O99       1.19910      .   S
    Zr34   O100      0.63777      .   S
    Zr13   O100      0.63777      .   S
    Zr34   O101      1.20034      .   S
    Zr2    O101      1.20034      .   S
    Zr13   O102      0.63531      .   S
    Zr35   O102      0.63531      .   S
    Zr18   O103      0.63527      .   S
    Zr45   O103      0.63527      .   S
    Zr35   O104      1.23380      .   S
    Zr2    O104      1.23380      .   S
    Zr45   O105      1.23564      .   S
    Zr5    O105      1.23564      .   S
    Zr2    O106      1.14569      .   S
    Zr26   O106      1.14569      .   S
    Zr5    O107      1.14348      .   S
    Zr52   O107      1.14348      .   S
    Zr26   O108      0.64239      .   S
    Zr9    O108      0.64239      .   S
    Zr52   O109      0.64244      .   S
    Zr22   O109      0.64244      .   S
    Zr9    O110      0.63079      .   S
    Zr27   O110      0.63079      .   S
    Zr22   O111      0.63056      .   S
    Zr53   O111      0.63056      .   S
    N112   O113      1.08714  1_455   S
    Zr23   O113      1.84069      .   S
    N112   O114      1.27037      .   S
    Zr6    O114      2.44038      .   S
    N115   O116      1.06850  1_455   S
    Zr12   O116      1.82068      .   S
    N115   O117      1.29123      .   S
    Zr3    O117      2.47484      .   S
    N118   O119      1.06863  1_454   S
    Zr22   O119      1.82090      .   S
    N118   O120      1.29144      .   S
    Zr6    O120      2.47529      .   S
    N121   O122      1.08581  1_554   S
    Zr9    O122      1.83844      .   S
    N121   O123      1.27625      .   S
    Zr1    O123      2.46087      .   S
    N124   O125      1.08803  1_656   S
    Zr14   O125      1.84087      .   S
    N124   O126      1.27467      .   S
    Zr2    O126      2.45968      .   S
    N127   O128      1.08730      .   S
    Zr10   O128      1.84092      .   S
    N127   O129      1.27018      .   S
    Zr0    O129      2.43978      .   S
    N130   O131      1.25844      .   S
    Zr3    O131      2.42813      .   S
    N130   O132      1.08641  1_455   S
    Zr13   O132      1.86416  1_545   S
    N133   O134      1.04674  1_655   S
    Zr21   O134      1.91054  1_565   S
    N133   O135      1.25833      .   S
    Zr7    O135      2.42870      .   S
    N136   O137      1.27024      .   S
    Zr1    O137      2.43979      .   S
    N136   O138      1.08731      .   S
    Zr8    O138      1.84083  1_565   S
    N139   O140      1.08804  1_655   S
    Zr20   O140      1.84079      .   S
    N139   O141      1.27432      .   S
    Zr7    O141      2.45887      .   S
    N142   O143      1.25846      .   S
    Zr2    O143      2.42892      .   S
    N142   O144      1.04696  1_655   S
    Zr15   O144      1.91057      .   S
    N145   O146      1.27019      .   S
    Zr4    O146      2.43978      .   S
    N145   O147      1.08731      .   S
    Zr18   O147      1.84093      .   S
    N148   O149      1.27563      .   S
    Zr5    O149      2.46024      .   S
    N148   O150      1.08625  1_556   S
    Zr17   O150      1.83903      .   S
    N151   O152      1.08614      .   S
    Zr11   O152      1.83870      .   S
    N151   O153      1.27579      .   S
    Zr0    O153      2.46016      .   S
    N154   O155      1.25853      .   S
    Zr5    O155      2.42794      .   S
    N154   O156      1.08719      .   S
    Zr16   O156      1.86399  1_545   S
    N157   O158      1.08612      .   S
    Zr19   O158      1.83870      .   S
    N157   O159      1.27584      .   S
    Zr4    O159      2.46025      .   S
