# CIF file generated by openbabel 2.4.90, see http://openbabel.sf.net
data_I
_chemical_name_common ''
_cell_length_a 23.173
_cell_length_b 23.132
_cell_length_c 22.876
_cell_angle_alpha 89.923
_cell_angle_beta 90.038
_cell_angle_gamma 119.768
_space_group_name_H-M_alt 'P 1'
_space_group_name_Hall 'P 1'
loop_
    _symmetry_equiv_pos_as_xyz
    x,y,z
loop_
    _atom_site_label
    _atom_site_type_symbol
    _atom_site_fract_x
    _atom_site_fract_y
    _atom_site_fract_z
    _atom_site_occupancy
    B0      B    0.32329   0.32329   0.00020   1.000
    B1      B    0.32328   0.82328   0.00000   1.000
    B2      B    0.82327   0.32329   0.00000   1.000
    B3      B    0.82328   0.82328   0.00020   1.000
    B4      B    0.99973   0.17681   0.66645   1.000
    B5      B    0.99973   0.67680   0.66645   1.000
    B6      B    0.49972   0.17681   0.66640   1.000
    B7      B    0.49972   0.67680   0.66645   1.000
    B8      B    0.17671   0.99970   0.33357   1.000
    B9      B    0.17671   0.49970   0.33357   1.000
    B10     B    0.67670   0.99970   0.33357   1.000
    B11     B    0.67670   0.49970   0.33357   1.000
    B12     B    0.17653   0.17649   0.50008   1.000
    B13     B    0.17653   0.67648   0.50008   1.000
    B14     B    0.67652   0.17649   0.50008   1.000
    B15     B    0.67652   0.67648   0.50008   1.000
    B16     B    0.00047   0.32326   0.16635   1.000
    B17     B    0.00047   0.82325   0.16635   1.000
    B18     B    0.50046   0.32326   0.16635   1.000
    B19     B    0.50046   0.82325   0.16635   1.000
    B20     B    0.32312   0.00036   0.83361   1.000
    B21     B    0.32312   0.50035   0.83361   1.000
    B22     B    0.82311   0.00036   0.83361   1.000
    B23     B    0.82311   0.50035   0.83361   1.000
    C24     C    0.25617   0.01318   0.08331   1.000
    C25     C    0.25616   0.51317   0.08330   1.000
    C26     C    0.75615   0.01318   0.08330   1.000
    C27     C    0.75616   0.51317   0.08330   1.000
    C28     C    0.25631   0.24360   0.75008   1.000
    C29     C    0.25631   0.74359   0.75008   1.000
    C30     C    0.47823   0.25213   0.96779   1.000
    C31     C    0.47823   0.75212   0.96779   1.000
    C32     C    0.97822   0.25213   0.96779   1.000
    C33     C    0.97822   0.75212   0.96779   1.000
    C34     C    0.27499   0.02193   0.63457   1.000
    C35     C    0.27499   0.52193   0.63457   1.000
    C36     C    0.77498   0.02194   0.63457   1.000
    C37     C    0.77498   0.52193   0.63457   1.000
    C38     C    0.24761   0.22523   0.30119   1.000
    C39     C    0.24762   0.72522   0.30119   1.000
    C40     C    0.74760   0.22523   0.30119   1.000
    C41     C    0.74760   0.72522   0.30119   1.000
    C42     C    0.02173   0.24793   0.46785   1.000
    C43     C    0.02174   0.74792   0.46785   1.000
    C44     C    0.52172   0.24793   0.46785   1.000
    C45     C    0.52173   0.74792   0.46785   1.000
    C46     C    0.02168   0.27473   0.36541   1.000
    C47     C    0.02168   0.77472   0.36541   1.000
    C48     C    0.52167   0.27473   0.36541   1.000
    C49     C    0.52167   0.77472   0.36541   1.000
    C50     C    0.27512   0.25265   0.19887   1.000
    C51     C    0.27512   0.75264   0.19887   1.000
    C52     C    0.77511   0.25265   0.19887   1.000
    C53     C    0.77511   0.75264   0.19887   1.000
    C54     C    0.24818   0.02185   0.53210   1.000
    C55     C    0.24819   0.52184   0.53210   1.000
    C56     C    0.74817   0.02185   0.53210   1.000
    C57     C    0.74818   0.52184   0.53200   1.000
    C58     C    0.47830   0.22516   0.86540   1.000
    C59     C    0.47830   0.72516   0.86540   1.000
    C60     C    0.97829   0.22516   0.86540   1.000
    C61     C    0.97829   0.72516   0.86540   1.000
    C62     C    0.01335   0.25626   0.91658   1.000
    C63     C    0.01335   0.75625   0.91658   1.000
    C64     C    0.51334   0.25626   0.91658   1.000
    C65     C    0.51334   0.75626   0.91658   1.000
    C66     C    0.08308   0.29139   0.91654   1.000
    C67     C    0.08308   0.79138   0.91654   1.000
    C68     C    0.58306   0.29139   0.91654   1.000
    C69     C    0.58307   0.79138   0.91654   1.000
    C70     C    0.24390   0.48676   0.58346   1.000
    C71     C    0.24390   0.98675   0.58346   1.000
    C72     C    0.74389   0.48676   0.58346   1.000
    C73     C    0.74389   0.98675   0.58346   1.000
    C74     C    0.20856   0.41691   0.58363   1.000
    C75     C    0.20856   0.91691   0.58363   1.000
    C76     C    0.70855   0.41691   0.58363   1.000
    C77     C    0.70854   0.91691   0.58363   1.000
    C78     C    0.24374   0.25648   0.24995   1.000
    C79     C    0.24374   0.75647   0.24995   1.000
    C80     C    0.74373   0.25648   0.24995   1.000
    C81     C    0.74373   0.75647   0.24995   1.000
    C82     C    0.20863   0.29139   0.24987   1.000
    C83     C    0.20863   0.79138   0.24987   1.000
    C84     C    0.70862   0.29139   0.24987   1.000
    C85     C    0.70862   0.79138   0.24987   1.000
    C86     C    0.48659   0.24369   0.41660   1.000
    C87     C    0.48659   0.74368   0.41660   1.000
    C88     C    0.98658   0.24369   0.41660   1.000
    C89     C    0.98658   0.74369   0.41660   1.000
    C90     C    0.41686   0.20855   0.41655   1.000
    C91     C    0.41686   0.70854   0.41655   1.000
    C92     C    0.91685   0.20855   0.41655   1.000
    C93     C    0.91685   0.70854   0.41655   1.000
    C94     C    0.75630   0.24360   0.75008   1.000
    C95     C    0.75630   0.74359   0.75008   1.000
    N96     N    0.44860   0.24783   0.01064   1.000
    N97     N    0.44860   0.74782   0.01064   1.000
    N98     N    0.94859   0.24783   0.01064   1.000
    N99     N    0.94859   0.74782   0.01064   1.000
    N100    N    0.30043   0.05167   0.67729   1.000
    N101    N    0.30043   0.55166   0.67729   1.000
    N102    N    0.80042   0.05167   0.67729   1.000
    N103    N    0.80042   0.55166   0.67729   1.000
    N104    N    0.25162   0.19971   0.34412   1.000
    N105    N    0.25163   0.69970   0.34412   1.000
    N106    N    0.75161   0.19971   0.34412   1.000
    N107    N    0.75161   0.69970   0.34412   1.000
    N108    N    0.05141   0.25235   0.51071   1.000
    N109    N    0.05141   0.75234   0.51071   1.000
    N110    N    0.55140   0.25235   0.51071   1.000
    N111    N    0.55141   0.75234   0.51071   1.000
    N112    N    0.05138   0.30010   0.32262   1.000
    N113    N    0.05138   0.80009   0.32262   1.000
    N114    N    0.55137   0.30010   0.32262   1.000
    N115    N    0.55137   0.80009   0.32262   1.000
    N116    N    0.30080   0.24863   0.15614   1.000
    N117    N    0.30080   0.74862   0.15614   1.000
    N118    N    0.80079   0.24863   0.15614   1.000
    N119    N    0.80079   0.74862   0.15614   1.000
    N120    N    0.25261   0.05139   0.48908   1.000
    N121    N    0.25261   0.55138   0.48908   1.000
    N122    N    0.75259   0.05139   0.48908   1.000
    N123    N    0.75260   0.55138   0.48908   1.000
    N124    N    0.44866   0.19972   0.82267   1.000
    N125    N    0.44866   0.69971   0.82260   1.000
    N126    N    0.94865   0.19972   0.82267   1.000
    N127    N    0.94865   0.69971   0.82267   1.000
    N128    N    0.14136   0.32077   0.91652   1.000
    N129    N    0.14136   0.82077   0.91652   1.000
    N130    N    0.64135   0.32078   0.91652   1.000
    N131    N    0.64135   0.82077   0.91652   1.000
    N132    N    0.17894   0.35853   0.58369   1.000
    N133    N    0.17894   0.85852   0.58369   1.000
    N134    N    0.67893   0.35853   0.58369   1.000
    N135    N    0.67893   0.85853   0.58369   1.000
    N136    N    0.17927   0.32056   0.24986   1.000
    N137    N    0.17927   0.82055   0.24986   1.000
    N138    N    0.67926   0.32056   0.24986   1.000
    N139    N    0.67926   0.82055   0.24986   1.000
    N140    N    0.35858   0.17914   0.41652   1.000
    N141    N    0.35858   0.67914   0.41652   1.000
    N142    N    0.85857   0.17914   0.41652   1.000
    N143    N    0.85857   0.67914   0.41652   1.000
loop_
    _geom_bond_atom_site_label_1
    _geom_bond_atom_site_label_2
    _geom_bond_distance
    _geom_bond_site_symmetry_2
    _ccdc_geom_bond_type
    N97    C31       1.17266  1_554   S
    N96    C30       1.17265  1_554   S
    N98    C32       1.17265  1_554   S
    N99    C33       1.17265  1_554   S
    N117   C51       1.17223      .   S
    N118   C52       1.17223      .   S
    N116   C50       1.17222      .   S
    N119   C53       1.17222      .   S
    C50    C78       1.40259      .   S
    C51    C79       1.40258      .   S
    C52    C80       1.40259      .   S
    C53    C81       1.40259      .   S
    N136   C82       1.17234      .   S
    N137   C83       1.17232      .   S
    N138   C84       1.17234      .   S
    N139   C85       1.17232      .   S
    C85    C81       1.40247      .   S
    C82    C78       1.40245      .   S
    C84    C80       1.40245      .   S
    C83    C79       1.40247      .   S
    C78    C38       1.40231      .   S
    C81    C41       1.40231      .   S
    C80    C40       1.40231      .   S
    C79    C39       1.40231      .   S
    C38    N104      1.17232      .   S
    C39    N105      1.17232      .   S
    C40    N106      1.17233      .   S
    C41    N107      1.17231      .   S
    N115   C49       1.17237      .   S
    N114   C48       1.17239      .   S
    N113   C47       1.17238      .   S
    N112   C46       1.17237      .   S
    C49    C87       1.40251      .   S
    C48    C86       1.40251      .   S
    C46    C88       1.40267  1_455   S
    C47    C89       1.40266  1_455   S
    N142   C92       1.17243      .   S
    N143   C93       1.17243      .   S
    N141   C91       1.17241      .   S
    N140   C90       1.17241      .   S
    C92    C88       1.40265      .   S
    C91    C87       1.40265      .   S
    C90    C86       1.40265      .   S
    C93    C89       1.40265      .   S
    C88    C42       1.40271  1_655   S
    C86    C44       1.40245      .   S
    C89    C43       1.40274  1_655   S
    C87    C45       1.40247      .   S
    C43    N109      1.17230      .   S
    C42    N108      1.17230      .   S
    C44    N110      1.17230      .   S
    C45    N111      1.17230      .   S
    N120   C54       1.17252      .   S
    N122   C56       1.17252      .   S
    N123   C57       1.17059      .   S
    N121   C55       1.17252      .   S
    C57    C72       1.40413      .   S
    C56    C73       1.40247  1_545   S
    C54    C71       1.40247  1_545   S
    C55    C70       1.40221      .   S
    C73    C77       1.40258      .   S
    C73    C36       1.40276  1_565   S
    C72    C76       1.40256      .   S
    C72    C37       1.40263      .   S
    C70    C74       1.40256      .   S
    C70    C35       1.40264      .   S
    C71    C75       1.40256      .   S
    C71    C34       1.40276  1_565   S
    C75    N133      1.17237      .   S
    C76    N134      1.17237      .   S
    C74    N132      1.17237      .   S
    C77    N135      1.17235      .   S
    C35    N101      1.17219      .   S
    C36    N102      1.17219      .   S
    C37    N103      1.17219      .   S
    C34    N100      1.17220      .   S
    N125   C59       1.17306      .   S
    N124   C58       1.17172      .   S
    N126   C60       1.17172      .   S
    N127   C61       1.17172      .   S
    C58    C64       1.40308      .   S
    C59    C65       1.40309      .   S
    C60    C62       1.40325  1_655   S
    C61    C63       1.40323  1_655   S
    N130   C68       1.17239      .   S
    N129   C67       1.17239      .   S
    N128   C66       1.17239      .   S
    N131   C69       1.17239      .   S
    C66    C62       1.40251      .   S
    C67    C63       1.40253      .   S
    C68    C64       1.40251      .   S
    C69    C65       1.40251      .   S
    C63    C33       1.40284  1_455   S
    C65    C31       1.40257      .   S
    C64    C30       1.40258      .   S
    C62    C32       1.40285  1_455   S
