# CIF file generated by openbabel 2.4.90, see http://openbabel.sf.net
data_I
_chemical_name_common ''
_cell_length_a 23.173
_cell_length_b 23.132
_cell_length_c 22.876
_cell_angle_alpha 89.923
_cell_angle_beta 90.038
_cell_angle_gamma 119.768
_space_group_name_H-M_alt 'P 1'
_space_group_name_Hall 'P 1'
loop_
    _symmetry_equiv_pos_as_xyz
    x,y,z
loop_
    _atom_site_label
    _atom_site_type_symbol
    _atom_site_fract_x
    _atom_site_fract_y
    _atom_site_fract_z
    _atom_site_occupancy
    H0      H    0.42773   0.41196   0.88901   1.000
    H1      H    0.42773   0.91195   0.88900   1.000
    H2      H    0.92772   0.41196   0.88900   1.000
    H3      H    0.92772   0.91195   0.88900   1.000
    H4      H    0.41049   0.33005   0.90890   1.000
    H5      H    0.41049   0.83004   0.90891   1.000
    H6      H    0.91048   0.33005   0.90891   1.000
    H7      H    0.91048   0.83004   0.90891   1.000
    H8      H    0.45194   0.39723   0.95939   1.000
    H9      H    0.45195   0.89722   0.95930   1.000
    H10     H    0.95194   0.39723   0.95938   1.000
    H11     H    0.95194   0.89722   0.95938   1.000
    H12     H    0.16185   0.27087   0.03134   1.000
    H13     H    0.16185   0.77086   0.03134   1.000
    H14     H    0.66184   0.27087   0.03134   1.000
    H15     H    0.66184   0.77086   0.03134   1.000
    H16     H    0.22315   0.31377   0.08657   1.000
    H17     H    0.22315   0.81376   0.08656   1.000
    H18     H    0.72314   0.31377   0.08656   1.000
    H19     H    0.72314   0.81376   0.08656   1.000
    H20     H    0.21263   0.23764   0.05697   1.000
    H21     H    0.21263   0.73763   0.05697   1.000
    H22     H    0.71262   0.23764   0.05697   1.000
    H23     H    0.71262   0.73763   0.05697   1.000
    H24     H    0.48373   0.07196   0.55536   1.000
    H25     H    0.48373   0.57195   0.55536   1.000
    H26     H    0.98372   0.07196   0.55536   1.000
    H27     H    0.98372   0.57195   0.55536   1.000
    H28     H    0.41949   0.08964   0.57560   1.000
    H29     H    0.41949   0.58963   0.57560   1.000
    H30     H    0.91948   0.08964   0.57560   1.000
    H31     H    0.91948   0.58963   0.57560   1.000
    H32     H    0.44531   0.04772   0.62584   1.000
    H33     H    0.44531   0.54771   0.62584   1.000
    H34     H    0.94530   0.04772   0.62584   1.000
    H35     H    0.94530   0.54771   0.62584   1.000
    H36     H    0.10865   0.33834   0.69771   1.000
    H37     H    0.10866   0.83833   0.69771   1.000
    H38     H    0.60864   0.33834   0.69771   1.000
    H39     H    0.60864   0.83833   0.69771   1.000
    H40     H    0.09012   0.27646   0.75269   1.000
    H41     H    0.09012   0.77645   0.75269   1.000
    H42     H    0.59011   0.27646   0.75269   1.000
    H43     H    0.59011   0.77645   0.75269   1.000
    H44     H    0.02503   0.28806   0.72342   1.000
    H45     H    0.02503   0.78805   0.72342   1.000
    H46     H    0.52502   0.28806   0.72342   1.000
    H47     H    0.52502   0.78805   0.72342   1.000
    H48     H    0.08808   0.01667   0.22259   1.000
    H49     H    0.08808   0.51666   0.22259   1.000
    H50     H    0.58807   0.01667   0.22259   1.000
    H51     H    0.58807   0.51666   0.22259   1.000
    H52     H    0.58034   0.66963   0.75733   1.000
    H53     H    0.05482   0.10234   0.70697   1.000
    H54     H    0.05482   0.60233   0.70697   1.000
    H55     H    0.55481   0.10234   0.70697   1.000
    H56     H    0.16976   0.08062   0.24268   1.000
    H57     H    0.16976   0.58062   0.24268   1.000
    H58     H    0.66975   0.08062   0.24268   1.000
    H59     H    0.66975   0.58062   0.24268   1.000
    H60     H    0.10255   0.05516   0.29306   1.000
    H61     H    0.10255   0.55515   0.29306   1.000
    H62     H    0.60254   0.05516   0.29306   1.000
    H63     H    0.60254   0.55515   0.29306   1.000
    H64     H    0.22923   0.39002   0.36442   1.000
    H65     H    0.22923   0.89001   0.36442   1.000
    H66     H    0.72922   0.39002   0.36442   1.000
    H67     H    0.72922   0.89001   0.36442   1.000
    H68     H    0.18625   0.40850   0.41970   1.000
    H69     H    0.18625   0.90849   0.41970   1.000
    H70     H    0.68624   0.40850   0.41970   1.000
    H71     H    0.68624   0.90849   0.41970   1.000
    H72     H    0.26229   0.47374   0.39023   1.000
    H73     H    0.26229   0.97373   0.39023   1.000
    H74     H    0.76228   0.47374   0.39023   1.000
    H75     H    0.76228   0.97373   0.39023   1.000
    H76     H    0.07207   0.08805   0.38894   1.000
    H77     H    0.07208   0.58805   0.38894   1.000
    H78     H    0.57206   0.08805   0.38894   1.000
    H79     H    0.57207   0.58805   0.38895   1.000
    H80     H    0.08945   0.16996   0.40883   1.000
    H81     H    0.08945   0.66995   0.40883   1.000
    H82     H    0.58943   0.16996   0.40880   1.000
    H83     H    0.58944   0.66995   0.40883   1.000
    H84     H    0.27640   0.09020   0.24721   1.000
    H85     H    0.27640   0.59019   0.24721   1.000
    H86     H    0.77638   0.09020   0.24721   1.000
    H87     H    0.77639   0.59019   0.24721   1.000
    H88     H    0.28770   0.02484   0.27650   1.000
    H89     H    0.04780   0.10265   0.45928   1.000
    H90     H    0.04781   0.60264   0.45928   1.000
    H91     H    0.54779   0.10265   0.45920   1.000
    H92     H    0.54780   0.60264   0.45928   1.000
    H93     H    0.33801   0.22899   0.53120   1.000
    H94     H    0.33801   0.72898   0.53120   1.000
    H95     H    0.83800   0.22899   0.53120   1.000
    H96     H    0.83800   0.72898   0.53121   1.000
    H97     H    0.27669   0.18600   0.58644   1.000
    H98     H    0.27669   0.68599   0.58645   1.000
    H99     H    0.77668   0.18600   0.58644   1.000
    H100    H    0.77668   0.68599   0.58645   1.000
    H101    H    0.28718   0.26214   0.55673   1.000
    H102    H    0.28719   0.76213   0.55673   1.000
    H103    H    0.78717   0.26214   0.55673   1.000
    H104    H    0.78717   0.76213   0.55673   1.000
    H105    H    0.01627   0.42817   0.05511   1.000
    H106    H    0.01627   0.92816   0.05511   1.000
    H107    H    0.51626   0.42817   0.05511   1.000
    H108    H    0.51626   0.92816   0.05511   1.000
    H109    H    0.08068   0.41070   0.07535   1.000
    H110    H    0.08068   0.91069   0.07535   1.000
    H111    H    0.58067   0.41070   0.07535   1.000
    H112    H    0.58067   0.91069   0.07535   1.000
    H113    H    0.05464   0.45228   0.12561   1.000
    H114    H    0.05465   0.95227   0.12561   1.000
    H115    H    0.55463   0.45228   0.12561   1.000
    H116    H    0.55464   0.95227   0.12561   1.000
    H117    H    0.39158   0.16168   0.19787   1.000
    H118    H    0.39158   0.66167   0.19787   1.000
    H119    H    0.89157   0.16168   0.19787   1.000
    H120    H    0.89157   0.66167   0.19787   1.000
    H121    H    0.41002   0.22345   0.25278   1.000
    H122    H    0.41002   0.72344   0.25278   1.000
    H123    H    0.91000   0.22345   0.25278   1.000
    H124    H    0.91000   0.72344   0.25278   1.000
    H125    H    0.47518   0.21201   0.22360   1.000
    H126    H    0.47518   0.71200   0.22360   1.000
    H127    H    0.97517   0.21201   0.22360   1.000
    H128    H    0.97517   0.71200   0.22360   1.000
    H129    H    0.41187   0.48356   0.72280   1.000
    H130    H    0.41187   0.98355   0.72280   1.000
    H131    H    0.91186   0.48356   0.72280   1.000
    H132    H    0.91186   0.98355   0.72280   1.000
    H133    H    0.33015   0.41961   0.74288   1.000
    H134    H    0.33016   0.91960   0.74288   1.000
    H135    H    0.83015   0.41961   0.74288   1.000
    H136    H    0.83015   0.91960   0.74288   1.000
    H137    H    0.39735   0.44492   0.79320   1.000
    H138    H    0.39735   0.94491   0.79320   1.000
    H139    H    0.89734   0.44492   0.79320   1.000
    H140    H    0.89734   0.94491   0.79320   1.000
    H141    H    0.27081   0.11014   0.86435   1.000
    H142    H    0.27081   0.61013   0.86435   1.000
    H143    H    0.77080   0.11014   0.86435   1.000
    H144    H    0.77080   0.61013   0.86435   1.000
    H145    H    0.31382   0.09143   0.91955   1.000
    H146    H    0.31382   0.59142   0.91955   1.000
    H147    H    0.81381   0.09143   0.91955   1.000
    H148    H    0.81381   0.59142   0.91955   1.000
    H149    H    0.23762   0.02636   0.89024   1.000
    H150    H    0.23762   0.52635   0.89024   1.000
    H151    H    0.73761   0.02636   0.89024   1.000
    H152    H    0.73761   0.52635   0.89024   1.000
    H153    H    0.01637   0.08786   0.77746   1.000
    H154    H    0.01638   0.58785   0.77746   1.000
    H155    H    0.51636   0.08786   0.77746   1.000
    H156    H    0.51636   0.58785   0.77746   1.000
    H157    H    0.08035   0.16964   0.75733   1.000
    H158    H    0.08035   0.66963   0.75733   1.000
    H159    H    0.58034   0.16964   0.75733   1.000
    C160    C    0.25236   0.77477   0.80125   1.000
    C161    C    0.75235   0.27478   0.80125   1.000
    C162    C    0.75235   0.77477   0.80125   1.000
    C163    C    0.37631   0.46265   0.75906   1.000
    C164    C    0.37631   0.96264   0.75906   1.000
    C165    C    0.87630   0.46265   0.75906   1.000
    C166    C    0.87630   0.96264   0.75906   1.000
    C167    C    0.28355   0.07282   0.87953   1.000
    H168    H    0.55481   0.60233   0.70697   1.000
    H169    H    0.39037   0.22955   0.63542   1.000
    H170    H    0.39037   0.72954   0.63542   1.000
    H171    H    0.89036   0.22955   0.63542   1.000
    H172    H    0.89036   0.72954   0.63542   1.000
    H173    H    0.40880   0.18640   0.58022   1.000
    H174    H    0.40880   0.68639   0.58022   1.000
    H175    H    0.90879   0.18640   0.58022   1.000
    H176    H    0.90879   0.68639   0.58022   1.000
    H177    H    0.47395   0.26258   0.60957   1.000
    H178    H    0.47395   0.76257   0.60957   1.000
    H179    H    0.97394   0.26258   0.60957   1.000
    H180    H    0.97394   0.76257   0.60957   1.000
    H181    H    0.41207   0.42818   0.11100   1.000
    H182    H    0.41207   0.92817   0.11100   1.000
    H183    H    0.91206   0.42818   0.11000   1.000
    H184    H    0.91206   0.92817   0.11000   1.000
    H185    H    0.33024   0.41067   0.09111   1.000
    H186    H    0.33024   0.91066   0.09111   1.000
    H187    H    0.83023   0.41067   0.09111   1.000
    H188    H    0.83023   0.91066   0.09111   1.000
    H189    H    0.39734   0.45250   0.04060   1.000
    H190    H    0.39734   0.95249   0.04065   1.000
    H191    H    0.89733   0.45250   0.04065   1.000
    H192    H    0.89733   0.95249   0.04065   1.000
    H193    H    0.27099   0.16153   0.96910   1.000
    H194    H    0.27099   0.66152   0.96910   1.000
    H195    H    0.77098   0.16153   0.96910   1.000
    H196    H    0.77098   0.66152   0.96910   1.000
    H197    H    0.31409   0.22328   0.91411   1.000
    H198    H    0.31409   0.72327   0.91411   1.000
    H199    H    0.81408   0.22328   0.91411   1.000
    H200    H    0.81408   0.72327   0.91411   1.000
    H201    H    0.23782   0.21238   0.94340   1.000
    H202    H    0.23782   0.71237   0.94340   1.000
    H203    H    0.73781   0.21238   0.94340   1.000
    H204    H    0.73781   0.71237   0.94340   1.000
    H205    H    0.07208   0.48368   0.44473   1.000
    H206    H    0.07208   0.98367   0.44473   1.000
    H207    H    0.57207   0.48368   0.44473   1.000
    H208    H    0.57207   0.98367   0.44473   1.000
    H209    H    0.08960   0.41926   0.42446   1.000
    H210    H    0.08960   0.91925   0.42446   1.000
    H211    H    0.58959   0.41926   0.42446   1.000
    H212    H    0.58959   0.91925   0.42446   1.000
    H213    H    0.04793   0.44533   0.37424   1.000
    H214    H    0.04793   0.94532   0.37424   1.000
    H215    H    0.54792   0.44533   0.37424   1.000
    H216    H    0.54792   0.94532   0.37424   1.000
    H217    H    0.33805   0.10858   0.30221   1.000
    H218    H    0.33805   0.60857   0.30221   1.000
    H219    H    0.83804   0.10858   0.30221   1.000
    H220    H    0.83804   0.60857   0.30221   1.000
    C221    C    0.29172   0.08302   0.08350   1.000
    C222    C    0.29172   0.58301   0.08350   1.000
    C223    C    0.79171   0.08302   0.08350   1.000
    C224    C    0.79171   0.58301   0.08350   1.000
    H225    H    0.28770   0.52483   0.27657   1.000
    H226    H    0.78769   0.02484   0.27650   1.000
    H227    H    0.78769   0.52483   0.27657   1.000
    H228    H    0.48364   0.41200   0.27720   1.000
    H229    H    0.48364   0.91199   0.27720   1.000
    H230    H    0.98363   0.41200   0.27720   1.000
    H231    H    0.98363   0.91199   0.27720   1.000
    H232    H    0.41981   0.33018   0.25709   1.000
    H233    H    0.41981   0.83017   0.25709   1.000
    H234    H    0.91980   0.33018   0.25709   1.000
    H235    H    0.91980   0.83017   0.25709   1.000
    H236    H    0.44516   0.39759   0.20672   1.000
    H237    H    0.44516   0.89758   0.20672   1.000
    H238    H    0.94514   0.39759   0.20672   1.000
    H239    H    0.94515   0.89758   0.20672   1.000
    H240    H    0.10985   0.27062   0.13555   1.000
    H241    H    0.10985   0.77061   0.13555   1.000
    H242    H    0.60984   0.27062   0.13555   1.000
    H243    H    0.60984   0.77061   0.13555   1.000
    H244    H    0.09132   0.31381   0.08032   1.000
    H245    H    0.09132   0.81380   0.08032   1.000
    H246    H    0.59131   0.31381   0.08032   1.000
    H247    H    0.59131   0.81380   0.08032   1.000
    H248    H    0.02625   0.23753   0.10972   1.000
    H249    H    0.02625   0.73752   0.10972   1.000
    H250    H    0.52624   0.23753   0.10972   1.000
    H251    H    0.52624   0.73752   0.10972   1.000
    H252    H    0.08790   0.07162   0.61111   1.000
    H253    H    0.08790   0.57161   0.61111   1.000
    H254    H    0.58789   0.07162   0.61111   1.000
    H255    H    0.58789   0.57161   0.61110   1.000
    H256    H    0.16970   0.08910   0.59123   1.000
    H257    H    0.16970   0.58909   0.59123   1.000
    H258    H    0.66969   0.08910   0.59123   1.000
    H259    H    0.66968   0.58909   0.59123   1.000
    H260    H    0.10255   0.04731   0.54080   1.000
    H261    H    0.10255   0.54730   0.54083   1.000
    H262    H    0.60254   0.04731   0.54082   1.000
    H263    H    0.60254   0.54729   0.54083   1.000
    H264    H    0.22910   0.33835   0.46889   1.000
    H265    H    0.22910   0.83834   0.46890   1.000
    H266    H    0.72909   0.33835   0.46889   1.000
    H267    H    0.72909   0.83834   0.46890   1.000
    H268    H    0.18605   0.27682   0.41383   1.000
    H269    H    0.18605   0.77681   0.41380   1.000
    H270    H    0.68604   0.27683   0.41383   1.000
    H271    H    0.68604   0.77681   0.41384   1.000
    H272    H    0.26214   0.28741   0.44332   1.000
    H273    H    0.26215   0.78740   0.44332   1.000
    H274    H    0.76213   0.28741   0.44332   1.000
    H275    H    0.76213   0.78740   0.44333   1.000
    H276    H    0.42776   0.01607   0.94478   1.000
    H277    H    0.42776   0.51606   0.94478   1.000
    H278    H    0.92775   0.01607   0.94478   1.000
    H279    H    0.92775   0.51606   0.94478   1.000
    H280    H    0.41041   0.08066   0.92450   1.000
    H281    H    0.41041   0.58065   0.92450   1.000
    H282    H    0.91040   0.08066   0.92450   1.000
    H283    H    0.91040   0.58065   0.92450   1.000
    H284    H    0.45185   0.05449   0.87423   1.000
    H285    H    0.45185   0.55448   0.87423   1.000
    H286    H    0.95184   0.05449   0.87423   1.000
    H287    H    0.95184   0.55448   0.87423   1.000
    H288    H    0.16185   0.39147   0.80214   1.000
    H289    H    0.16185   0.89146   0.80214   1.000
    H290    H    0.66184   0.39147   0.80214   1.000
    H291    H    0.66184   0.89146   0.80214   1.000
    H292    H    0.22356   0.40994   0.74722   1.000
    H293    H    0.22356   0.90993   0.74722   1.000
    H294    H    0.72355   0.40994   0.74722   1.000
    H295    H    0.72355   0.90993   0.74720   1.000
    H296    H    0.21222   0.47525   0.77643   1.000
    H297    H    0.21222   0.97524   0.77643   1.000
    H298    H    0.71221   0.47525   0.77643   1.000
    H299    H    0.71221   0.97524   0.77643   1.000
    C300    C    0.41333   0.37623   0.92522   1.000
    C301    C    0.41334   0.87622   0.92522   1.000
    C302    C    0.91332   0.37623   0.92522   1.000
    C303    C    0.91333   0.87622   0.92522   1.000
    C304    C    0.21176   0.28365   0.04645   1.000
    C305    C    0.21176   0.78364   0.04645   1.000
    C306    C    0.71175   0.28365   0.04645   1.000
    C307    C    0.71175   0.78364   0.04645   1.000
    C308    C    0.46270   0.08648   0.59170   1.000
    C309    C    0.46270   0.58647   0.59170   1.000
    C310    C    0.96269   0.08648   0.59170   1.000
    C311    C    0.96269   0.58647   0.59170   1.000
    C312    C    0.07150   0.28841   0.71271   1.000
    C313    C    0.07150   0.78840   0.71271   1.000
    C314    C    0.57149   0.28841   0.71271   1.000
    C315    C    0.57149   0.78840   0.71271   1.000
    C316    C    0.12363   0.03753   0.25887   1.000
    C317    C    0.12363   0.53752   0.25887   1.000
    C318    C    0.62362   0.03753   0.25887   1.000
    C319    C    0.62362   0.53752   0.25887   1.000
    C320    C    0.21640   0.42723   0.37962   1.000
    C321    C    0.21640   0.92722   0.37962   1.000
    C322    C    0.71639   0.42723   0.37962   1.000
    C323    C    0.71639   0.92722   0.37962   1.000
    C324    C    0.08647   0.12369   0.42516   1.000
    C325    C    0.08647   0.62368   0.42516   1.000
    C326    C    0.58646   0.12369   0.42515   1.000
    C327    C    0.58647   0.62368   0.42516   1.000
    C328    C    0.28808   0.21616   0.54629   1.000
    C329    C    0.28808   0.71615   0.54629   1.000
    C330    C    0.78807   0.21616   0.54628   1.000
    C331    C    0.78807   0.71614   0.54629   1.000
    C332    C    0.22494   0.47807   0.13445   1.000
    C333    C    0.22494   0.97806   0.13445   1.000
    C334    C    0.72493   0.47807   0.13445   1.000
    C335    C    0.72493   0.97806   0.13445   1.000
    C336    C    0.03738   0.41363   0.09145   1.000
    C337    C    0.03738   0.91363   0.09145   1.000
    C338    C    0.53737   0.41364   0.09145   1.000
    C339    C    0.53737   0.91363   0.09145   1.000
    C340    C    0.42868   0.21161   0.21284   1.000
    C341    C    0.42868   0.71160   0.21284   1.000
    C342    C    0.92867   0.21161   0.21284   1.000
    C343    C    0.92867   0.71160   0.21284   1.000
    C344    C    0.25236   0.27478   0.80125   1.000
    C345    C    0.28355   0.57281   0.87953   1.000
    C346    C    0.78354   0.07282   0.87953   1.000
    C347    C    0.78354   0.57281   0.87953   1.000
    C348    C    0.22480   0.24722   0.69897   1.000
    C349    C    0.22480   0.74721   0.69897   1.000
    C350    C    0.72479   0.24722   0.69897   1.000
    C351    C    0.72479   0.74721   0.69897   1.000
    C352    C    0.03727   0.12349   0.74117   1.000
    C353    C    0.03727   0.62348   0.74117   1.000
    C354    C    0.53726   0.12349   0.74117   1.000
    C355    C    0.53726   0.62348   0.74117   1.000
    C356    C    0.42749   0.21664   0.62025   1.000
    C357    C    0.42750   0.71663   0.62025   1.000
    C358    C    0.92748   0.21664   0.62025   1.000
    C359    C    0.92749   0.71663   0.62025   1.000
    C360    C    0.25178   0.47808   0.03200   1.000
    C361    C    0.25178   0.97807   0.03202   1.000
    C362    C    0.75177   0.47808   0.03202   1.000
    C363    C    0.75177   0.97807   0.03202   1.000
    C364    C    0.37643   0.41373   0.07479   1.000
    C365    C    0.37643   0.91372   0.07479   1.000
    C366    C    0.87642   0.41373   0.07479   1.000
    C367    C    0.87642   0.91372   0.07479   1.000
    C368    C    0.28374   0.21158   0.95410   1.000
    C369    C    0.28374   0.71157   0.95410   1.000
    C370    C    0.78373   0.21158   0.95410   1.000
    C371    C    0.78373   0.71157   0.95410   1.000
    C372    C    0.08657   0.46262   0.40838   1.000
    C373    C    0.08657   0.96261   0.40838   1.000
    C374    C    0.58656   0.46262   0.40838   1.000
    C375    C    0.58656   0.96261   0.40838   1.000
    C376    C    0.28819   0.07147   0.28722   1.000
    C377    C    0.28819   0.57146   0.28722   1.000
    C378    C    0.78818   0.07147   0.28722   1.000
    C379    C    0.78818   0.57146   0.28722   1.000
    C380    C    0.46280   0.37644   0.24092   1.000
    C381    C    0.46280   0.87643   0.24092   1.000
    C382    C    0.96279   0.37644   0.24092   1.000
    C383    C    0.96279   0.87643   0.24092   1.000
    C384    C    0.07268   0.28349   0.12037   1.000
    C385    C    0.07268   0.78348   0.12037   1.000
    C386    C    0.57267   0.28349   0.12037   1.000
    C387    C    0.57267   0.78348   0.12037   1.000
    C388    C    0.12350   0.08607   0.57489   1.000
    C389    C    0.12350   0.58606   0.57489   1.000
    C390    C    0.62349   0.08607   0.57489   1.000
    C391    C    0.62349   0.58606   0.57489   1.000
    C392    C    0.21626   0.28831   0.45390   1.000
    C393    C    0.21626   0.78830   0.45390   1.000
    C394    C    0.71625   0.28831   0.45300   1.000
    C395    C    0.71625   0.78830   0.45390   1.000
    C396    C    0.41328   0.03724   0.90843   1.000
    C397    C    0.41328   0.53723   0.90843   1.000
    C398    C    0.91327   0.03724   0.90843   1.000
    C399    C    0.91327   0.53723   0.90843   1.000
    C400    C    0.21173   0.42860   0.78717   1.000
    C401    C    0.21173   0.92860   0.78717   1.000
    C402    C    0.71172   0.42861   0.78717   1.000
    C403    C    0.71172   0.92860   0.78717   1.000
    C404    C    0.29162   0.20889   0.74999   1.000
    C405    C    0.29162   0.70888   0.74999   1.000
    C406    C    0.79161   0.20889   0.74990   1.000
    C407    C    0.79161   0.70888   0.74999   1.000
    N408    N    0.19941   0.44847   0.17725   1.000
    N409    N    0.19941   0.94846   0.17725   1.000
    N410    N    0.69940   0.44847   0.17725   1.000
    N411    N    0.69940   0.94846   0.17725   1.000
    N412    N    0.24828   0.30027   0.84410   1.000
    N413    N    0.24828   0.80026   0.84410   1.000
    N414    N    0.74827   0.30027   0.84410   1.000
    N415    N    0.74827   0.80026   0.84410   1.000
    N416    N    0.19903   0.25099   0.65615   1.000
    N417    N    0.19903   0.75098   0.65615   1.000
    N418    N    0.69902   0.25099   0.65615   1.000
    N419    N    0.69902   0.75098   0.65615   1.000
    N420    N    0.24725   0.44846   0.98907   1.000
    N421    N    0.24725   0.94845   0.98907   1.000
    N422    N    0.74724   0.44846   0.98907   1.000
    N423    N    0.74725   0.94845   0.98907   1.000
    N424    N    0.32151   0.14140   0.08369   1.000
    N425    N    0.32151   0.64139   0.08369   1.000
    N426    N    0.82149   0.14140   0.08369   1.000
    N427    N    0.82149   0.64139   0.08369   1.000
    N428    N    0.32114   0.17987   0.74987   1.000
    N429    N    0.32114   0.67986   0.74987   1.000
    N430    N    0.82113   0.17987   0.74987   1.000
    N431    N    0.82113   0.67986   0.74987   1.000
    O432    O    0.35109   0.36439   0.94718   1.000
    O433    O    0.35109   0.86438   0.94718   1.000
    O434    O    0.85108   0.36439   0.94718   1.000
    O435    O    0.85108   0.86438   0.94718   1.000
    O436    O    0.25783   0.31957   0.00000   1.000
    O437    O    0.25782   0.81956   0.00000   1.000
    O438    O    0.75781   0.31957   0.00000   1.000
    O439    O    0.75781   0.81956   0.00000   1.000
    O440    O    0.01303   0.14868   0.61362   1.000
    O441    O    0.01303   0.64867   0.61362   1.000
    O442    O    0.51302   0.14868   0.61362   1.000
    O443    O    0.51302   0.64867   0.61362   1.000
    O444    O    0.06098   0.24239   0.66722   1.000
    O445    O    0.06098   0.74238   0.66722   1.000
    O446    O    0.56097   0.24239   0.66722   1.000
    O447    O    0.56097   0.74238   0.66722   1.000
    O448    O    0.13541   0.48680   0.28070   1.000
    O449    O    0.13541   0.98679   0.28070   1.000
    O450    O    0.63540   0.48680   0.28070   1.000
    O451    O    0.63540   0.98679   0.28070   1.000
    O452    O    0.18061   0.43791   0.33439   1.000
    O453    O    0.18061   0.93790   0.33439   1.000
    O454    O    0.68060   0.43791   0.33439   1.000
    O455    O    0.68060   0.93790   0.33439   1.000
    O456    O    0.14864   0.13534   0.44720   1.000
    O457    O    0.14864   0.63533   0.44720   1.000
    O458    O    0.64863   0.13533   0.44720   1.000
    O459    O    0.64863   0.63533   0.44720   1.000
    O460    O    0.24203   0.18028   0.50103   1.000
    O461    O    0.24203   0.68027   0.50103   1.000
    O462    O    0.74202   0.18028   0.50102   1.000
    O463    O    0.74202   0.68026   0.50104   1.000
    O464    O    0.48718   0.35129   0.11334   1.000
    O465    O    0.48718   0.85128   0.11334   1.000
    O466    O    0.98717   0.35129   0.11334   1.000
    O467    O    0.98717   0.85128   0.11334   1.000
    O468    O    0.43916   0.25769   0.16700   1.000
    O469    O    0.43916   0.75768   0.16700   1.000
    O470    O    0.93915   0.25769   0.16700   1.000
    O471    O    0.93915   0.75768   0.16700   1.000
    O472    O    0.36457   0.01336   0.78088   1.000
    O473    O    0.36457   0.51335   0.78088   1.000
    O474    O    0.86456   0.01336   0.78088   1.000
    O475    O    0.86456   0.51335   0.78088   1.000
    O476    O    0.31913   0.06208   0.83423   1.000
    O477    O    0.31913   0.56207   0.83423   1.000
    O478    O    0.81912   0.06208   0.83423   1.000
    O479    O    0.81912   0.56207   0.83423   1.000
    O480    O    0.48673   0.13545   0.71935   1.000
    O481    O    0.48673   0.63544   0.71935   1.000
    O482    O    0.98672   0.13545   0.71935   1.000
    O483    O    0.98672   0.63544   0.71935   1.000
    O484    O    0.43809   0.18080   0.66555   1.000
    O485    O    0.43809   0.68079   0.66555   1.000
    O486    O    0.93808   0.18080   0.66555   1.000
    O487    O    0.93808   0.68079   0.66555   1.000
    O488    O    0.36489   0.35150   0.05270   1.000
    O489    O    0.36488   0.85149   0.05270   1.000
    O490    O    0.86487   0.35150   0.05270   1.000
    O491    O    0.86487   0.85149   0.05270   1.000
    O492    O    0.31919   0.25753   0.99959   1.000
    O493    O    0.31919   0.75752   0.99950   1.000
    O494    O    0.81918   0.25753   0.99958   1.000
    O495    O    0.81918   0.75752   0.99958   1.000
    O496    O    0.14873   0.01301   0.38648   1.000
    O497    O    0.14873   0.51300   0.38648   1.000
    O498    O    0.64872   0.01301   0.38648   1.000
    O499    O    0.64872   0.51301   0.38648   1.000
    O500    O    0.24221   0.06104   0.33269   1.000
    O501    O    0.24221   0.56103   0.33269   1.000
    O502    O    0.74220   0.06104   0.33269   1.000
    O503    O    0.74220   0.56103   0.33269   1.000
    O504    O    0.01345   0.36472   0.21909   1.000
    O505    O    0.01345   0.86471   0.21909   1.000
    O506    O    0.51344   0.36472   0.21909   1.000
    O507    O    0.51344   0.86471   0.21909   1.000
    O508    O    0.06204   0.31920   0.16564   1.000
    O509    O    0.06204   0.81919   0.16564   1.000
    O510    O    0.56203   0.31920   0.16564   1.000
    O511    O    0.56203   0.81919   0.16564   1.000
    O512    O    0.13506   0.14831   0.55270   1.000
    O513    O    0.13506   0.64830   0.55277   1.000
    O514    O    0.63505   0.14832   0.55270   1.000
    O515    O    0.63504   0.64830   0.55277   1.000
    O516    O    0.18059   0.24224   0.49930   1.000
    O517    O    0.18060   0.74223   0.49931   1.000
    O518    O    0.68058   0.24224   0.49930   1.000
    O519    O    0.68059   0.74223   0.49931   1.000
    O520    O    0.35102   0.48700   0.88664   1.000
    O521    O    0.35102   0.98699   0.88664   1.000
    O522    O    0.85101   0.48700   0.88664   1.000
    O523    O    0.85101   0.98699   0.88664   1.000
    O524    O    0.25766   0.43897   0.83269   1.000
    O525    O    0.25766   0.93896   0.83269   1.000
    O526    O    0.75765   0.43897   0.83269   1.000
    O527    O    0.75765   0.93896   0.83269   1.000
loop_
    _geom_bond_atom_site_label_1
    _geom_bond_atom_site_label_2
    _geom_bond_distance
    _geom_bond_site_symmetry_2
    _ccdc_geom_bond_type
    O439   C307      1.44125      .   S
    O436   C304      1.44131      .   S
    O438   C306      1.44126      .   S
    O437   C305      1.44127      .   S
    H12    C304      1.09765      .   S
    H13    C305      1.09768      .   S
    H14    C306      1.09768      .   S
    H15    C307      1.09768      .   S
    C360   N420      1.17260  1_554   S
    C363   N423      1.17300  1_554   S
    C362   N422      1.17299  1_554   S
    C361   N421      1.17299  1_554   S
    H189   C364      1.10362      .   S
    H192   C367      1.10280      .   S
    H191   C366      1.10280      .   S
    H190   C365      1.10282      .   S
    C305   H21       1.10075      .   S
    C305   H17       1.10262      .   S
    C307   H23       1.10072      .   S
    C307   H19       1.10265      .   S
    C304   H20       1.10075      .   S
    C304   H16       1.10279      .   S
    C306   H22       1.10072      .   S
    C306   H18       1.10264      .   S
    O491   C367      1.42061      .   S
    O490   C366      1.42061      .   S
    O489   C365      1.42059      .   S
    O488   C364      1.42059      .   S
    H107   C338      1.09794      .   S
    H105   C336      1.09793      .   S
    H106   C337      1.09793      .   S
    H108   C339      1.09795      .   S
    C367   H188      1.10249      .   S
    C367   H184      1.08084      .   S
    C366   H187      1.10248      .   S
    C366   H183      1.08084      .   S
    C365   H186      1.10248      .   S
    C365   H182      1.09799      .   S
    C364   H185      1.10248      .   S
    C364   H181      1.09799      .   S
    H111   C338      1.10249      .   S
    H112   C339      1.10246      .   S
    H110   C337      1.10249      .   S
    H109   C336      1.10247      .   S
    H247   C387      1.10262      .   S
    H246   C386      1.10262      .   S
    H245   C385      1.10262      .   S
    H244   C384      1.10261      .   S
    C223   N426      1.17236      .   S
    C224   N427      1.17234      .   S
    C222   N425      1.17234      .   S
    C221   N424      1.17236      .   S
    C336   O466      1.42022  1_455   S
    C336   H113      1.10284      .   S
    C337   O467      1.42022  1_455   S
    C337   H114      1.10283      .   S
    C338   O464      1.42008      .   S
    C338   H115      1.10283      .   S
    C339   O465      1.42007      .   S
    C339   H116      1.10283      .   S
    H248   C384      1.10073      .   S
    H249   C385      1.10074      .   S
    H250   C386      1.10074      .   S
    H251   C387      1.10073      .   S
    C384   H240      1.09778      .   S
    C384   O508      1.42145      .   S
    C387   H243      1.09778      .   S
    C387   O511      1.42145      .   S
    C386   H242      1.09776      .   S
    C386   O510      1.42145      .   S
    C385   H241      1.09776      .   S
    C385   O509      1.42145      .   S
    C334   N410      1.17223      .   S
    C332   N408      1.17224      .   S
    C333   N409      1.17224      .   S
    C335   N411      1.17223      .   S
    O471   C343      1.42659      .   S
    O468   C340      1.42659      .   S
    O469   C341      1.42658      .   S
    O470   C342      1.42659      .   S
    H120   C343      1.09776      .   S
    H119   C342      1.09776      .   S
    H118   C341      1.09775      .   S
    H117   C340      1.09775      .   S
    H236   C380      1.10271      .   S
    H237   C381      1.10271      .   S
    H238   C382      1.10271      .   S
    H239   C383      1.10271      .   S
    C340   H125      1.10073      .   S
    C340   H121      1.10269      .   S
    C341   H126      1.10073      .   S
    C341   H122      1.10269      .   S
    C342   H127      1.10073      .   S
    C342   H123      1.10270      .   S
    C343   H128      1.10073      .   S
    C343   H124      1.10271      .   S
    O507   C381      1.42016      .   S
    O504   C382      1.42063  1_455   S
    O505   C383      1.42065  1_455   S
    O506   C380      1.42018      .   S
    H48    C316      1.09805      .   S
    H51    C319      1.09803      .   S
    H49    C317      1.09805      .   S
    H50    C318      1.09803      .   S
    C380   H232      1.10238      .   S
    C380   H228      1.09791      .   S
    C381   H233      1.10239      .   S
    C381   H229      1.09791      .   S
    C382   H234      1.10238      .   S
    C382   H230      1.09791      .   S
    C383   H235      1.10240      .   S
    C383   H231      1.09790      .   S
    H59    C319      1.10240      .   S
    H56    C316      1.10240      .   S
    H57    C317      1.10240      .   S
    H58    C318      1.10240      .   S
    H87    C379      1.10276      .   S
    H86    C378      1.10276      .   S
    H85    C377      1.10276      .   S
    H84    C376      1.10275      .   S
    C316   O449      1.42052  1_545   S
    C316   H60       1.10265      .   S
    C317   O448      1.42008      .   S
    C317   H61       1.10263      .   S
    C318   O451      1.42054  1_545   S
    C318   H62       1.10263      .   S
    C319   O450      1.42010      .   S
    C319   H63       1.10262      .   S
    H88    C376      1.10112      .   S
    H226   C378      1.10113      .   S
    H227   C379      1.10076      .   S
    H225   C377      1.10075      .   S
    C379   H220      1.09772      .   S
    C379   O503      1.42154      .   S
    C378   H219      1.09772      .   S
    C378   O502      1.42154      .   S
    C377   H218      1.09772      .   S
    C377   O501      1.42154      .   S
    C376   H217      1.09772      .   S
    C376   O500      1.42152      .   S
    O452   C320      1.42166      .   S
    O453   C321      1.42166      .   S
    O454   C322      1.42166      .   S
    O455   C323      1.42163      .   S
    H65    C321      1.09776      .   S
    H64    C320      1.09776      .   S
    H66    C322      1.09778      .   S
    H67    C323      1.09779      .   S
    H215   C374      1.10272      .   S
    H214   C373      1.10270      .   S
    H213   C372      1.10272      .   S
    H216   C375      1.10272      .   S
    C323   H75       1.10067      .   S
    C323   H71       1.10260      .   S
    C322   H74       1.10067      .   S
    C322   H70       1.10260      .   S
    C321   H73       1.10067      .   S
    C321   H69       1.10260      .   S
    C320   H72       1.10067      .   S
    C320   H68       1.10260      .   S
    O496   C373      1.42014  1_545   S
    O497   C372      1.42003      .   S
    O498   C375      1.42013  1_545   S
    O499   C374      1.42003      .   S
    H76    C324      1.09805      .   S
    H77    C325      1.09805      .   S
    H78    C326      1.09786      .   S
    H79    C327      1.09787      .   S
    C375   H212      1.10247      .   S
    C375   H208      1.09790      .   S
    C374   H211      1.10248      .   S
    C374   H207      1.09790      .   S
    C373   H210      1.10248      .   S
    C373   H206      1.09790      .   S
    C372   H209      1.10248      .   S
    C372   H205      1.09789      .   S
    H82    C326      1.10269      .   S
    H80    C324      1.10253      .   S
    H81    C325      1.10254      .   S
    H83    C327      1.10254      .   S
    H269   C393      1.10335      .   S
    H270   C394      1.08569      .   S
    H268   C392      1.10276      .   S
    H271   C395      1.10260      .   S
    C326   O458      1.41999      .   S
    C326   H91       1.10156      .   S
    C324   O456      1.41993      .   S
    C324   H89       1.10268      .   S
    C325   O457      1.41994      .   S
    C325   H90       1.10267      .   S
    C327   O459      1.41993      .   S
    C327   H92       1.10267      .   S
    H272   C392      1.10081      .   S
    H273   C393      1.10081      .   S
    H274   C394      1.09649      .   S
    H275   C395      1.10075      .   S
    C394   H266      1.10424      .   S
    C394   O518      1.43676      .   S
    C392   H264      1.09761      .   S
    C392   O516      1.42165      .   S
    C393   H265      1.09769      .   S
    C393   O517      1.42179      .   S
    C395   H267      1.09769      .   S
    C395   O519      1.42175      .   S
    O462   C330      1.42156      .   S
    O460   C328      1.42160      .   S
    O461   C329      1.42162      .   S
    O463   C331      1.42149      .   S
    H95    C330      1.09766      .   S
    H94    C329      1.09771      .   S
    H93    C328      1.09771      .   S
    H96    C331      1.09764      .   S
    H260   C388      1.10312      .   S
    H262   C390      1.10279      .   S
    H263   C391      1.10265      .   S
    H261   C389      1.10265      .   S
    C330   H103      1.10081      .   S
    C330   H99       1.10280      .   S
    C328   H101      1.10078      .   S
    C328   H97       1.10257      .   S
    C329   H102      1.10078      .   S
    C329   H98       1.10274      .   S
    C331   H104      1.10080      .   S
    C331   H100      1.10271      .   S
    O512   C388      1.42056      .   S
    O514   C390      1.42057      .   S
    O513   C389      1.41999      .   S
    O515   C391      1.41998      .   S
    H25    C309      1.09786      .   S
    H27    C311      1.09786      .   S
    H26    C310      1.09788      .   S
    H24    C308      1.09785      .   S
    C388   H256      1.10249      .   S
    C388   H252      1.09790      .   S
    C391   H259      1.10247      .   S
    C391   H255      1.09771      .   S
    C390   H258      1.10247      .   S
    C390   H254      1.09790      .   S
    C389   H257      1.10248      .   S
    C389   H253      1.09790      .   S
    H31    C311      1.10249      .   S
    H30    C310      1.10249      .   S
    H29    C309      1.10250      .   S
    H28    C308      1.10250      .   S
    H174   C357      1.10266      .   S
    H175   C358      1.10267      .   S
    H176   C359      1.10267      .   S
    H173   C356      1.10266      .   S
    C308   O442      1.42002      .   S
    C308   H32       1.10272      .   S
    C309   O443      1.42002      .   S
    C309   H33       1.10272      .   S
    C310   O440      1.42018  1_655   S
    C310   H34       1.10272      .   S
    C311   O441      1.42018  1_655   S
    C311   H35       1.10272      .   S
    H177   C356      1.10066      .   S
    H180   C359      1.10066      .   S
    H179   C358      1.10066      .   S
    H178   C357      1.10067      .   S
    C359   H172      1.09785      .   S
    C359   O487      1.42172      .   S
    C358   H171      1.09783      .   S
    C358   O486      1.42172      .   S
    C357   H170      1.09787      .   S
    C357   O485      1.42170      .   S
    C356   H169      1.09783      .   S
    C356   O484      1.42173      .   S
    N416   C348      1.17233      .   S
    N417   C349      1.17233      .   S
    N418   C350      1.17233      .   S
    N419   C351      1.17232      .   S
    O445   C313      1.42140      .   S
    O444   C312      1.42140      .   S
    O446   C314      1.42142      .   S
    O447   C315      1.42142      .   S
    H39    C315      1.09772      .   S
    H38    C314      1.09772      .   S
    H37    C313      1.09772      .   S
    H36    C312      1.09772      .   S
    H168   C355      1.10265      .   S
    H53    C352      1.10265      .   S
    H55    C354      1.10266      .   S
    H54    C353      1.10264      .   S
    C315   H47       1.10075      .   S
    C315   H43       1.10278      .   S
    C312   H44       1.10076      .   S
    C312   H40       1.10278      .   S
    C313   H45       1.10077      .   S
    C313   H41       1.10277      .   S
    C314   H46       1.10077      .   S
    C314   H42       1.10277      .   S
    O481   C355      1.42027      .   S
    O480   C354      1.42027      .   S
    O482   C352      1.42073  1_655   S
    O483   C353      1.42072  1_655   S
    H129   C163      1.09783      .   S
    H130   C164      1.09782      .   S
    H131   C165      1.09782      .   S
    H132   C166      1.09783      .   S
    C353   H158      1.10240      .   S
    C353   H154      1.09795      .   S
    C352   H157      1.10240      .   S
    C352   H153      1.09796      .   S
    C355   H52       1.10241      .   S
    C355   H156      1.09795      .   S
    C354   H159      1.10240      .   S
    C354   H155      1.09795      .   S
    H134   C164      1.10237      .   S
    H135   C165      1.10237      .   S
    H136   C166      1.10237      .   S
    H133   C163      1.10236      .   S
    H295   C403      1.10301      .   S
    H293   C401      1.10264      .   S
    H292   C400      1.10264      .   S
    H294   C402      1.10265      .   S
    N430   C406      1.17230      .   S
    N431   C407      1.17230      .   S
    N429   C405      1.17232      .   S
    N428   C404      1.17230      .   S
    C165   O475      1.42023      .   S
    C165   H139      1.10142      .   S
    C164   O472      1.42066  1_565   S
    C164   H138      1.10140      .   S
    C163   O473      1.42021      .   S
    C163   H137      1.10142      .   S
    C166   O474      1.42066  1_565   S
    C166   H140      1.10143      .   S
    H299   C403      1.10078      .   S
    H296   C400      1.10076      .   S
    H297   C401      1.10077      .   S
    H298   C402      1.10076      .   S
    C401   H289      1.09773      .   S
    C401   O525      1.42151      .   S
    C402   H290      1.09774      .   S
    C402   O526      1.42150      .   S
    C403   H291      1.09773      .   S
    C403   O527      1.42151      .   S
    C400   H288      1.09773      .   S
    C400   O524      1.42151      .   S
    C344   N412      1.17237      .   S
    C160   N413      1.17237      .   S
    C161   N414      1.17237      .   S
    C162   N415      1.17238      .   S
    O476   C167      1.42145      .   S
    O477   C345      1.42146      .   S
    O478   C346      1.42146      .   S
    O479   C347      1.42146      .   S
    H142   C345      1.09779      .   S
    H141   C167      1.09779      .   S
    H143   C346      1.09779      .   S
    H144   C347      1.09781      .   S
    H286   C398      1.10276      .   S
    H287   C399      1.10276      .   S
    H285   C397      1.10276      .   S
    H284   C396      1.10277      .   S
    C347   H152      1.10072      .   S
    C347   H148      1.10262      .   S
    C167   H149      1.10072      .   S
    C167   H145      1.10262      .   S
    C345   H150      1.10072      .   S
    C345   H146      1.10262      .   S
    C346   H151      1.10073      .   S
    C346   H147      1.10261      .   S
    O523   C398      1.42002  1_565   S
    O522   C399      1.41993      .   S
    O521   C396      1.42002  1_565   S
    O520   C397      1.41992      .   S
    H1     C301      1.09803      .   S
    H2     C302      1.09802      .   S
    H3     C303      1.09802      .   S
    H0     C300      1.09786      .   S
    C396   H280      1.10249      .   S
    C396   H276      1.09805      .   S
    C399   H283      1.10248      .   S
    C399   H279      1.09805      .   S
    C398   H282      1.10250      .   S
    C398   H278      1.09804      .   S
    C397   H281      1.10251      .   S
    C397   H277      1.09804      .   S
    H4     C300      1.10262      .   S
    H7     C303      1.10256      .   S
    H6     C302      1.10255      .   S
    H5     C301      1.10254      .   S
    H197   C368      1.10266      .   S
    H198   C369      1.10265      .   S
    H199   C370      1.10264      .   S
    H200   C371      1.10264      .   S
    C300   O432      1.41991      .   S
    C300   H8        1.10276      .   S
    C301   O433      1.41993      .   S
    C301   H9        1.10130      .   S
    C302   O434      1.41993      .   S
    C302   H10       1.10260      .   S
    C303   O435      1.41993      .   S
    C303   H11       1.10260      .   S
    H201   C368      1.10078      .   S
    H202   C369      1.10081      .   S
    H203   C370      1.10081      .   S
    H204   C371      1.10081      .   S
    C371   H196      1.09769      .   S
    C371   O495      1.42189      .   S
    C368   H193      1.09769      .   S
    C368   O492      1.42203      .   S
    C369   H194      1.09769      .   S
    C369   O493      1.42054      .   S
    C370   H195      1.09767      .   S
    C370   O494      1.42189      .   S
