# CIF file generated by openbabel 2.4.90, see http://openbabel.sf.net
data_I
_chemical_name_common ''
_cell_length_a 23.173
_cell_length_b 23.132
_cell_length_c 22.876
_cell_angle_alpha 89.923
_cell_angle_beta 90.038
_cell_angle_gamma 119.768
_space_group_name_H-M_alt 'P 1'
_space_group_name_Hall 'P 1'
loop_
    _symmetry_equiv_pos_as_xyz
    x,y,z
loop_
    _atom_site_label
    _atom_site_type_symbol
    _atom_site_fract_x
    _atom_site_fract_y
    _atom_site_fract_z
    _atom_site_occupancy
    N0      N    0.82328   0.82328   0.00020   1.000
    N1      N    0.17653   0.67648   0.50008   1.000
    N2      N    0.49972   0.67680   0.66645   1.000
    N3      N    0.32312   0.00036   0.83361   1.000
    N4      N    0.17671   0.99970   0.33357   1.000
    N5      N    0.49972   0.17681   0.66640   1.000
    N6      N    0.50046   0.32326   0.16635   1.000
    N7      N    0.01308   0.75617   0.91659   1.000
    N8      N    0.82327   0.32329   0.00000   1.000
    N9      N    0.32329   0.82328   0.00000   1.000
    N10     N    0.82311   0.00036   0.83361   1.000
    N11     N    0.67652   0.17649   0.50008   1.000
    N12     N    0.74382   0.75637   0.25000   1.000
    N13     N    0.32312   0.50035   0.83361   1.000
    N14     N    0.99973   0.67680   0.66645   1.000
    N15     N    0.00047   0.82325   0.16635   1.000
    N16     N    0.17671   0.49970   0.33357   1.000
    N17     N    0.67670   0.99970   0.33357   1.000
    N18     N    0.00047   0.32326   0.16635   1.000
    N19     N    0.82311   0.50035   0.83361   1.000
    N20     N    0.25631   0.24360   0.75008   1.000
    N21     N    0.99973   0.17681   0.66645   1.000
    N22     N    0.51308   0.25618   0.91659   1.000
    N23     N    0.67670   0.49970   0.33357   1.000
    N24     N    0.32329   0.32329   0.00020   1.000
    N25     N    0.67652   0.67648   0.50008   1.000
    N26     N    0.75615   0.01318   0.08330   1.000
    N27     N    0.50046   0.82325   0.16635   1.000
    N28     N    0.74382   0.25638   0.25000   1.000
    N29     N    0.01307   0.25618   0.91659   1.000
    N30     N    0.25617   0.51317   0.08330   1.000
    N31     N    0.75630   0.24360   0.75008   1.000
    N32     N    0.24383   0.75637   0.25000   1.000
    N33     N    0.17653   0.17649   0.50008   1.000
    N34     N    0.24383   0.25638   0.25000   1.000
    N35     N    0.25631   0.74359   0.75008   1.000
    N36     N    0.25617   0.01318   0.08331   1.000
    N37     N    0.51308   0.75617   0.91658   1.000
    N38     N    0.75630   0.74359   0.75008   1.000
    N39     N    0.75616   0.51317   0.08330   1.000
    Zr40    Zr   0.11929   0.38063   0.25002   1.000
    O41     O    0.15792   0.34206   0.25000   1.000
    O42     O    0.15252   0.40977   0.21738   1.000
    Zr43    Zr   0.11929   0.88062   0.25002   1.000
    O44     O    0.15792   0.84205   0.25000   1.000
    O45     O    0.15252   0.90976   0.21738   1.000
    Zr46    Zr   0.26104   0.38083   0.91680   1.000
    O47     O    0.25644   0.40989   0.94927   1.000
    O48     O    0.25677   0.34743   0.88418   1.000
    Zr49    Zr   0.88117   0.26124   0.08330   1.000
    O50     O    0.85507   0.20900   0.08342   1.000
    O51     O    0.92257   0.25830   0.03254   1.000
    Zr52    Zr   0.38118   0.76123   0.08330   1.000
    O53     O    0.42258   0.75829   0.03254   1.000
    O54     O    0.35508   0.70899   0.08342   1.000
    Zr55    Zr   0.73875   0.11903   0.41682   1.000
    O56     O    0.74163   0.16345   0.36603   1.000
    Zr57    Zr   0.76103   0.88082   0.91684   1.000
    O58     O    0.75676   0.84742   0.88421   1.000
    O59     O    0.75643   0.90988   0.94929   1.000
    Zr60    Zr   0.11890   0.73863   0.58321   1.000
    O61     O    0.15217   0.74279   0.61592   1.000
    Zr62    Zr   0.88078   0.61951   0.74997   1.000
    O63     O    0.85472   0.64577   0.74995   1.000
    O64     O    0.92234   0.66370   0.80071   1.000
    Zr65    Zr   0.23876   0.11903   0.41682   1.000
    O66     O    0.24164   0.16345   0.36603   1.000
    Zr67    Zr   0.88117   0.76123   0.08330   1.000
    O68     O    0.85507   0.70899   0.08342   1.000
    O69     O    0.92257   0.75829   0.03254   1.000
    Zr70    Zr   0.38079   0.11952   0.74997   1.000
    O71     O    0.42234   0.16371   0.80071   1.000
    O72     O    0.35473   0.14578   0.74995   1.000
    Zr73    Zr   0.11890   0.23864   0.58320   1.000
    O74     O    0.15217   0.24280   0.61591   1.000
    Zr75    Zr   0.61889   0.23864   0.58320   1.000
    O76     O    0.65216   0.24280   0.61591   1.000
    Zr77    Zr   0.61928   0.38063   0.25002   1.000
    O78     O    0.65791   0.34206   0.25000   1.000
    O79     O    0.65251   0.40977   0.21738   1.000
    Zr80    Zr   0.88078   0.11952   0.74997   1.000
    O81     O    0.92233   0.16371   0.80071   1.000
    O82     O    0.85472   0.14578   0.74994   1.000
    Zr83    Zr   0.73875   0.61902   0.41682   1.000
    O84     O    0.74163   0.66344   0.36603   1.000
    Zr85    Zr   0.61889   0.73863   0.58321   1.000
    O86     O    0.65216   0.74279   0.61592   1.000
    Zr87    Zr   0.38118   0.26124   0.08330   1.000
    O88     O    0.42258   0.25830   0.03254   1.000
    O89     O    0.35508   0.20900   0.08342   1.000
    Zr90    Zr   0.26104   0.88082   0.91684   1.000
    O91     O    0.25644   0.90988   0.94930   1.000
    O92     O    0.25677   0.84742   0.88421   1.000
    Zr93    Zr   0.76103   0.38083   0.91684   1.000
    O94     O    0.75675   0.34743   0.88421   1.000
    O95     O    0.75643   0.40989   0.94930   1.000
    Zr96    Zr   0.23876   0.61902   0.41682   1.000
    O97     O    0.24164   0.66344   0.36603   1.000
    Zr98    Zr   0.38079   0.61951   0.74997   1.000
    O99     O    0.42234   0.66370   0.80070   1.000
    O100    O    0.35473   0.64577   0.74995   1.000
    Zr101   Zr   0.61928   0.88062   0.25002   1.000
    O102    O    0.65251   0.90976   0.21738   1.000
    O103    O    0.65791   0.84205   0.25000   1.000
    O104    O    0.27923   0.41638   0.89256   1.000
    O105    O    0.27925   0.36340   0.94097   1.000
    O106    O    0.91664   0.27940   0.10746   1.000
    O107    O    0.86365   0.27941   0.05907   1.000
    O108    O    0.41665   0.77939   0.10746   1.000
    O109    O    0.36366   0.77940   0.05909   1.000
    O110    O    0.72059   0.08352   0.39256   1.000
    O111    O    0.63665   0.91603   0.27436   1.000
    O112    O    0.72054   0.13645   0.44105   1.000
    O113    O    0.58394   0.36328   0.22562   1.000
    O114    O    0.41665   0.27940   0.10746   1.000
    O115    O    0.77922   0.91637   0.89259   1.000
    O116    O    0.77924   0.86339   0.94100   1.000
    O117    O    0.13636   0.72044   0.55901   1.000
    O118    O    0.08345   0.72053   0.60746   1.000
    O119    O    0.86334   0.58408   0.77434   1.000
    O120    O    0.91614   0.63682   0.72562   1.000
    O121    O    0.22060   0.08352   0.39256   1.000
    O122    O    0.22055   0.13645   0.44105   1.000
    O123    O    0.91664   0.77939   0.10746   1.000
    O124    O    0.86365   0.77940   0.05907   1.000
    O125    O    0.41615   0.13683   0.72562   1.000
    O126    O    0.36335   0.08409   0.77434   1.000
    O127    O    0.08395   0.36328   0.22562   1.000
    O128    O    0.08345   0.22054   0.60745   1.000
    O129    O    0.13636   0.22045   0.55900   1.000
    O130    O    0.13666   0.41604   0.27436   1.000
    O131    O    0.22060   0.58351   0.39257   1.000
    O132    O    0.58344   0.22054   0.60745   1.000
    O133    O    0.63635   0.22045   0.55898   1.000
    O134    O    0.91614   0.13683   0.72562   1.000
    O135    O    0.86334   0.08409   0.77434   1.000
    O136    O    0.63665   0.41604   0.27436   1.000
    O137    O    0.08395   0.86327   0.22562   1.000
    O138    O    0.58394   0.86327   0.22562   1.000
    O139    O    0.36335   0.58408   0.77434   1.000
    O140    O    0.13666   0.91603   0.27436   1.000
    O141    O    0.72055   0.63644   0.44106   1.000
    O142    O    0.72059   0.58351   0.39257   1.000
    O143    O    0.63635   0.72044   0.55901   1.000
    O144    O    0.58344   0.72053   0.60746   1.000
    O145    O    0.36366   0.27941   0.05909   1.000
    O146    O    0.77922   0.41638   0.89259   1.000
    O147    O    0.22056   0.63644   0.44105   1.000
    O148    O    0.27925   0.86339   0.94100   1.000
    O149    O    0.27923   0.91637   0.89259   1.000
    O150    O    0.77924   0.36340   0.94100   1.000
    O151    O    0.41615   0.63682   0.72562   1.000
loop_
    _geom_bond_atom_site_label_1
    _geom_bond_atom_site_label_2
    _geom_bond_distance
    _geom_bond_site_symmetry_2
    _ccdc_geom_bond_type
    Zr40   O41       1.54618      .   S
    N34    O41       3.43645      .   S
    Zr40   O42       1.04353      .   S
    N30    O42       3.89655      .   S
    Zr43   O44       1.54618      .   S
    N32    O44       3.43644      .   S
    Zr43   O45       1.04353      .   S
    N36    O45       3.89650  1_545   S
    Zr46   O47       1.04294      .   S
    N30    O47       3.89146  1_554   S
    Zr46   O48       1.04347      .   S
    N20    O48       3.89546      .   S
    Zr49   O50       1.04896      .   S
    N26    O50       3.93223      .   S
    Zr49   O51       1.52972      .   S
    N29    O51       3.39794  1_456   S
    Zr52   O53       1.52973      .   S
    N37    O53       3.39798  1_556   S
    Zr52   O54       1.04896      .   S
    N30    O54       3.93225      .   S
    Zr55   O56       1.52950      .   S
    N28    O56       3.39777      .   S
    Zr57   O58       1.04372      .   S
    N38    O58       3.89593      .   S
    Zr57   O59       1.04273      .   S
    N26    O59       3.89124  1_544   S
    Zr60   O61       1.04360      .   S
    N35    O61       3.89734      .   S
    Zr62   O63       1.04775      .   S
    N38    O63       3.93017      .   S
    Zr62   O64       1.53101      .   S
    N7     O64       3.40081  1_455   S
    Zr65   O66       1.52950      .   S
    N34    O66       3.39777      .   S
    Zr67   O68       1.04895      .   S
    N39    O68       3.93224      .   S
    Zr67   O69       1.52972      .   S
    N7     O69       3.39794  1_456   S
    Zr70   O71       1.53100      .   S
    N22    O71       3.40076      .   S
    Zr70   O72       1.04775      .   S
    N20    O72       3.93021      .   S
    Zr73   O74       1.04366      .   S
    N20    O74       3.89746      .   S
    Zr75   O76       1.04366      .   S
    N31    O76       3.89745      .   S
    Zr77   O78       1.54618      .   S
    N28    O78       3.43645      .   S
    Zr77   O79       1.04352      .   S
    N39    O79       3.89654      .   S
    Zr80   O81       1.53101      .   S
    N29    O81       3.40081  1_455   S
    Zr80   O82       1.04774      .   S
    N31    O82       3.93020      .   S
    Zr83   O84       1.52950      .   S
    N12    O84       3.39776      .   S
    Zr85   O86       1.04360      .   S
    N38    O86       3.89736      .   S
    Zr87   O88       1.52968      .   S
    N22    O88       3.39784  1_556   S
    Zr87   O89       1.04896      .   S
    N36    O89       3.93223      .   S
    Zr90   O91       1.04273      .   S
    N36    O91       3.89142  1_544   S
    Zr90   O92       1.04372      .   S
    N35    O92       3.89592      .   S
    Zr93   O94       1.04372      .   S
    N31    O94       3.89591      .   S
    Zr93   O95       1.04273      .   S
    N39    O95       3.89096  1_554   S
    Zr96   O97       1.52950      .   S
    N32    O97       3.39776      .   S
    Zr98   O99       1.53081      .   S
    N37    O99       3.40079      .   S
    Zr98   O100      1.04775      .   S
    N35    O100      3.93021      .   S
    Zr101  O102      1.04353      .   S
    N26    O102      3.89668  1_545   S
    Zr101  O103      1.54618      .   S
    N12    O103      3.43644      .   S
    Zr46   O104      0.90349      .   S
    N13    O104      2.15843      .   S
    Zr46   O105      0.90251      .   S
    N24    O105      2.16157  1_554   S
    Zr49   O106      0.90263      .   S
    N18    O106      2.15892  1_455   S
    Zr49   O107      0.90401      .   S
    N8     O107      2.16075      .   S
    Zr52   O108      0.90260      .   S
    N27    O108      2.15864      .   S
    Zr52   O109      0.90375      .   S
    N9     O109      2.16101      .   S
    N17    O110      2.15915  1_565   S
    Zr55   O110      0.90407      .   S
    N17    O111      2.15954      .   S
    Zr101  O111      0.90369      .   S
    Zr55   O112      0.90412      .   S
    N11    O112      2.15989      .   S
    N6     O113      2.15852      .   S
    Zr77   O113      0.90376      .   S
    N6     O114      2.15864      .   S
    Zr87   O114      0.90260      .   S
    Zr57   O115      0.90373      .   S
    N10    O115      2.15903  1_545   S
    Zr57   O116      0.90230      .   S
    N0     O116      2.16123  1_554   S
    Zr60   O117      0.90397      .   S
    N1     O117      2.15947      .   S
    Zr60   O118      0.90344      .   S
    N14    O118      2.15863  1_655   S
    Zr62   O119      0.90338      .   S
    N19    O119      2.15881      .   S
    Zr62   O120      0.90352      .   S
    N14    O120      2.15886      .   S
    Zr65   O121      0.90406      .   S
    N4     O121      2.15916  1_565   S
    Zr65   O122      0.90417      .   S
    N33    O122      2.15982      .   S
    Zr67   O123      0.90264      .   S
    N15    O123      2.15893  1_455   S
    Zr67   O124      0.90400      .   S
    N0     O124      2.15795      .   S
    Zr70   O125      0.90349      .   S
    N5     O125      2.15927      .   S
    Zr70   O126      0.90341      .   S
    N3     O126      2.15877      .   S
    N18    O127      2.15850      .   S
    Zr40   O127      0.90379      .   S
    Zr73   O128      0.90350      .   S
    N21    O128      2.15872  1_655   S
    Zr73   O129      0.90402      .   S
    N33    O129      2.15927      .   S
    N16    O130      2.15927      .   S
    Zr40   O130      0.90366      .   S
    N16    O131      2.15921      .   S
    Zr96   O131      0.90401      .   S
    Zr75   O132      0.90347      .   S
    N5     O132      2.15805      .   S
    Zr75   O133      0.90432      .   S
    N11    O133      2.15893      .   S
    N21    O134      2.15887      .   S
    Zr80   O134      0.90352      .   S
    N10    O135      2.15878      .   S
    Zr80   O135      0.90342      .   S
    Zr77   O136      0.90366      .   S
    N23    O136      2.15927      .   S
    N15    O137      2.15850      .   S
    Zr43   O137      0.90379      .   S
    N27    O138      2.15852      .   S
    Zr101  O138      0.90376      .   S
    N13    O139      2.15880      .   S
    Zr98   O139      0.90338      .   S
    N4     O140      2.15954      .   S
    Zr43   O140      0.90369      .   S
    Zr83   O141      0.90418      .   S
    N25    O141      2.15978      .   S
    Zr83   O142      0.90401      .   S
    N23    O142      2.15920      .   S
    N25    O143      2.15949      .   S
    Zr85   O143      0.90397      .   S
    Zr85   O144      0.90341      .   S
    N2     O144      2.15868      .   S
    Zr87   O145      0.90367      .   S
    N24    O145      2.15832      .   S
    N19    O146      2.15878      .   S
    Zr93   O146      0.90369      .   S
    N1     O147      2.15981      .   S
    Zr96   O147      0.90417      .   S
    N9     O148      2.15845  1_554   S
    Zr90   O148      0.90228      .   S
    N3     O149      2.15904  1_545   S
    Zr90   O149      0.90372      .   S
    N8     O150      2.15842  1_554   S
    Zr93   O150      0.90230      .   S
    N2     O151      2.15855      .   S
    Zr98   O151      0.90349      .   S
