# CIF file generated by openbabel 2.4.90, see http://openbabel.sf.net
data_I
_chemical_name_common ''
_cell_length_a 23.173
_cell_length_b 23.132
_cell_length_c 22.876
_cell_angle_alpha 89.923
_cell_angle_beta 90.038
_cell_angle_gamma 119.768
_space_group_name_H-M_alt 'P 1'
_space_group_name_Hall 'P 1'
loop_
    _symmetry_equiv_pos_as_xyz
    x,y,z
loop_
    _atom_site_label
    _atom_site_type_symbol
    _atom_site_fract_x
    _atom_site_fract_y
    _atom_site_fract_z
    _atom_site_occupancy
    N0      N    0.82328   0.82328   0.00020   1.000
    N1      N    0.17653   0.67648   0.50008   1.000
    N2      N    0.24394   0.98700   0.58340   1.000
    N3      N    0.49972   0.67680   0.66645   1.000
    N4      N    0.32312   0.00036   0.83361   1.000
    N5      N    0.17671   0.99970   0.33357   1.000
    N6      N    0.49972   0.17681   0.66640   1.000
    N7      N    0.50046   0.32326   0.16635   1.000
    N8      N    0.01308   0.75617   0.91659   1.000
    N9      N    0.82327   0.32329   0.00000   1.000
    N10     N    0.32329   0.82328   0.00000   1.000
    N11     N    0.82311   0.00036   0.83361   1.000
    N12     N    0.67652   0.17649   0.50008   1.000
    N13     N    0.74382   0.75637   0.25000   1.000
    N14     N    0.32312   0.50035   0.83361   1.000
    N15     N    0.99973   0.67680   0.66645   1.000
    N16     N    0.00047   0.82325   0.16635   1.000
    N17     N    0.17671   0.49970   0.33357   1.000
    N18     N    0.67670   0.99970   0.33357   1.000
    N19     N    0.00047   0.32326   0.16635   1.000
    N20     N    0.82311   0.50035   0.83361   1.000
    N21     N    0.25631   0.24360   0.75008   1.000
    N22     N    0.99973   0.17681   0.66645   1.000
    N23     N    0.51308   0.25618   0.91659   1.000
    N24     N    0.67670   0.49970   0.33357   1.000
    N25     N    0.32329   0.32329   0.00020   1.000
    N26     N    0.74393   0.98700   0.58340   1.000
    N27     N    0.67652   0.67648   0.50008   1.000
    N28     N    0.75615   0.01318   0.08330   1.000
    N29     N    0.50046   0.82325   0.16635   1.000
    N30     N    0.74382   0.25638   0.25000   1.000
    N31     N    0.48688   0.24378   0.41661   1.000
    N32     N    0.01307   0.25618   0.91659   1.000
    N33     N    0.25617   0.51317   0.08330   1.000
    N34     N    0.75630   0.24360   0.75008   1.000
    N35     N    0.98689   0.24378   0.41661   1.000
    N36     N    0.24383   0.75637   0.25000   1.000
    N37     N    0.24394   0.48700   0.58340   1.000
    N38     N    0.17653   0.17649   0.50008   1.000
    N39     N    0.24383   0.25638   0.25000   1.000
    N40     N    0.25631   0.74359   0.75008   1.000
    N41     N    0.74393   0.48700   0.58339   1.000
    N42     N    0.25617   0.01318   0.08331   1.000
    N43     N    0.48689   0.74377   0.41661   1.000
    N44     N    0.51308   0.75617   0.91658   1.000
    N45     N    0.98689   0.74377   0.41661   1.000
    N46     N    0.75630   0.74359   0.75008   1.000
    N47     N    0.75616   0.51317   0.08330   1.000
    Zr48    Zr   0.11929   0.38063   0.25002   1.000
    O49     O    0.15792   0.34206   0.25000   1.000
    O50     O    0.10042   0.34903   0.20755   1.000
    O51     O    0.15252   0.40977   0.21738   1.000
    O52     O    0.15087   0.39950   0.29248   1.000
    O53     O    0.12245   0.43258   0.25625   1.000
    O54     O    0.06748   0.37753   0.24370   1.000
    Zr55    Zr   0.11929   0.88062   0.25002   1.000
    O56     O    0.15087   0.89949   0.29248   1.000
    O57     O    0.15792   0.84205   0.25000   1.000
    O58     O    0.15252   0.90976   0.21738   1.000
    O59     O    0.10042   0.84902   0.20755   1.000
    O60     O    0.06748   0.87752   0.24370   1.000
    O61     O    0.12245   0.93257   0.25625   1.000
    Zr62    Zr   0.26104   0.38083   0.91680   1.000
    O63     O    0.30974   0.43266   0.91076   1.000
    O64     O    0.24874   0.34924   0.95907   1.000
    O65     O    0.25644   0.40989   0.94927   1.000
    O66     O    0.30977   0.37756   0.92288   1.000
    O67     O    0.25677   0.34743   0.88418   1.000
    O68     O    0.24871   0.40010   0.87437   1.000
    Zr69    Zr   0.88117   0.26124   0.08330   1.000
    O70     O    0.85507   0.20900   0.08342   1.000
    O71     O    0.87789   0.31004   0.07711   1.000
    O72     O    0.84942   0.24878   0.04102   1.000
    O73     O    0.93293   0.30999   0.08927   1.000
    O74     O    0.92257   0.25830   0.03254   1.000
    O75     O    0.90035   0.24881   0.12564   1.000
    Zr76    Zr   0.38118   0.76123   0.08330   1.000
    O77     O    0.34943   0.74877   0.04101   1.000
    O78     O    0.37790   0.81003   0.07716   1.000
    O79     O    0.43294   0.80998   0.08927   1.000
    O80     O    0.42258   0.75829   0.03254   1.000
    O81     O    0.40036   0.74880   0.12564   1.000
    O82     O    0.35508   0.70899   0.08342   1.000
    Zr83    Zr   0.73875   0.11903   0.41682   1.000
    O84     O    0.74178   0.07757   0.46750   1.000
    O85     O    0.75112   0.09983   0.37439   1.000
    O86     O    0.69002   0.12229   0.42288   1.000
    O87     O    0.69005   0.06721   0.41074   1.000
    O88     O    0.74163   0.16345   0.36603   1.000
    O89     O    0.75107   0.15061   0.45922   1.000
    Zr90    Zr   0.76103   0.88082   0.91684   1.000
    O91     O    0.74870   0.90009   0.87439   1.000
    O92     O    0.74873   0.84923   0.95909   1.000
    O93     O    0.80973   0.93266   0.91078   1.000
    O94     O    0.75676   0.84742   0.88421   1.000
    O95     O    0.75643   0.90988   0.94929   1.000
    O96     O    0.80976   0.87755   0.92291   1.000
    Zr97    Zr   0.11890   0.73863   0.58321   1.000
    O98     O    0.06715   0.68995   0.58931   1.000
    O99     O    0.12213   0.68980   0.57714   1.000
    O100    O    0.07746   0.74163   0.53250   1.000
    O101    O    0.09975   0.75112   0.62560   1.000
    O102    O    0.15217   0.74279   0.61592   1.000
    O103    O    0.15060   0.75107   0.54088   1.000
    Zr104   Zr   0.88078   0.61951   0.74997   1.000
    O105    O    0.89968   0.65109   0.70748   1.000
    O106    O    0.85472   0.64577   0.74995   1.000
    O107    O    0.87757   0.56757   0.75628   1.000
    O108    O    0.93260   0.62256   0.74376   1.000
    O109    O    0.84912   0.60059   0.79241   1.000
    O110    O    0.92234   0.66370   0.80071   1.000
    Zr111   Zr   0.23876   0.11903   0.41682   1.000
    O112    O    0.24179   0.07757   0.46750   1.000
    O113    O    0.19003   0.12229   0.42288   1.000
    O114    O    0.24164   0.16345   0.36603   1.000
    O115    O    0.25113   0.09983   0.37439   1.000
    O116    O    0.19006   0.06721   0.41074   1.000
    O117    O    0.25108   0.15061   0.45923   1.000
    Zr118   Zr   0.88117   0.76123   0.08330   1.000
    O119    O    0.84942   0.74877   0.04102   1.000
    O120    O    0.87789   0.81003   0.07711   1.000
    O121    O    0.90035   0.74880   0.12564   1.000
    O122    O    0.85507   0.70899   0.08342   1.000
    O123    O    0.92257   0.75829   0.03254   1.000
    O124    O    0.93293   0.80998   0.08927   1.000
    Zr125   Zr   0.38079   0.11952   0.74997   1.000
    O126    O    0.37758   0.06757   0.75628   1.000
    O127    O    0.43261   0.12257   0.74376   1.000
    O128    O    0.42234   0.16371   0.80071   1.000
    O129    O    0.35473   0.14578   0.74995   1.000
    O130    O    0.39969   0.15110   0.70748   1.000
    O131    O    0.34913   0.10060   0.79241   1.000
    Zr132   Zr   0.11890   0.23864   0.58320   1.000
    O133    O    0.12213   0.18981   0.57712   1.000
    O134    O    0.06715   0.18996   0.58931   1.000
    O135    O    0.07746   0.24164   0.53249   1.000
    O136    O    0.15060   0.25108   0.54087   1.000
    O137    O    0.09975   0.25113   0.62559   1.000
    O138    O    0.15217   0.24280   0.61591   1.000
    Zr139   Zr   0.61889   0.23864   0.58320   1.000
    O140    O    0.65058   0.25108   0.54083   1.000
    O141    O    0.65216   0.24280   0.61591   1.000
    O142    O    0.59974   0.25113   0.62559   1.000
    O143    O    0.56715   0.18996   0.58931   1.000
    O144    O    0.57745   0.24164   0.53249   1.000
    O145    O    0.62212   0.18981   0.57713   1.000
    Zr146   Zr   0.61928   0.38063   0.25002   1.000
    O147    O    0.56747   0.37753   0.24370   1.000
    O148    O    0.65086   0.39950   0.29248   1.000
    O149    O    0.60041   0.34903   0.20755   1.000
    O150    O    0.62244   0.43258   0.25625   1.000
    O151    O    0.65791   0.34206   0.25000   1.000
    O152    O    0.65251   0.40977   0.21738   1.000
    Zr153   Zr   0.88078   0.11952   0.74997   1.000
    O154    O    0.84912   0.10060   0.79241   1.000
    O155    O    0.89968   0.15110   0.70748   1.000
    O156    O    0.93260   0.12257   0.74376   1.000
    O157    O    0.92233   0.16371   0.80071   1.000
    O158    O    0.85472   0.14578   0.74994   1.000
    O159    O    0.87757   0.06757   0.75628   1.000
    Zr160   Zr   0.73875   0.61902   0.41682   1.000
    O161    O    0.69002   0.62229   0.42288   1.000
    O162    O    0.74163   0.66344   0.36603   1.000
    O163    O    0.75112   0.59982   0.37439   1.000
    O164    O    0.75107   0.65060   0.45923   1.000
    O165    O    0.69005   0.56721   0.41074   1.000
    O166    O    0.74178   0.57756   0.46749   1.000
    Zr167   Zr   0.61889   0.73863   0.58321   1.000
    O168    O    0.57745   0.74163   0.53250   1.000
    O169    O    0.65216   0.74279   0.61592   1.000
    O170    O    0.62212   0.68980   0.57714   1.000
    O171    O    0.65059   0.75107   0.54088   1.000
    O172    O    0.56715   0.68995   0.58931   1.000
    O173    O    0.59974   0.75112   0.62560   1.000
    Zr174   Zr   0.38118   0.26124   0.08330   1.000
    O175    O    0.40036   0.24881   0.12564   1.000
    O176    O    0.34943   0.24878   0.04103   1.000
    O177    O    0.42258   0.25830   0.03254   1.000
    O178    O    0.37790   0.31004   0.07716   1.000
    O179    O    0.43294   0.30999   0.08927   1.000
    O180    O    0.35508   0.20900   0.08342   1.000
    Zr181   Zr   0.26104   0.88082   0.91684   1.000
    O182    O    0.25644   0.90988   0.94930   1.000
    O183    O    0.25677   0.84742   0.88421   1.000
    O184    O    0.30974   0.93266   0.91078   1.000
    O185    O    0.24874   0.84923   0.95909   1.000
    O186    O    0.24871   0.90009   0.87439   1.000
    O187    O    0.30977   0.87755   0.92290   1.000
    Zr188   Zr   0.76103   0.38083   0.91684   1.000
    O189    O    0.75675   0.34743   0.88421   1.000
    O190    O    0.80973   0.43266   0.91078   1.000
    O191    O    0.80976   0.37756   0.92291   1.000
    O192    O    0.75643   0.40989   0.94930   1.000
    O193    O    0.74873   0.34924   0.95909   1.000
    O194    O    0.74870   0.40010   0.87439   1.000
    Zr195   Zr   0.23876   0.61902   0.41682   1.000
    O196    O    0.24164   0.66344   0.36603   1.000
    O197    O    0.19006   0.56721   0.41074   1.000
    O198    O    0.24179   0.57756   0.46750   1.000
    O199    O    0.25108   0.65060   0.45923   1.000
    O200    O    0.25113   0.59982   0.37439   1.000
    O201    O    0.19003   0.62229   0.42288   1.000
    Zr202   Zr   0.38079   0.61951   0.74997   1.000
    O203    O    0.42234   0.66370   0.80070   1.000
    O204    O    0.34913   0.60059   0.79241   1.000
    O205    O    0.35473   0.64577   0.74995   1.000
    O206    O    0.37758   0.56757   0.75628   1.000
    O207    O    0.43261   0.62256   0.74376   1.000
    O208    O    0.39969   0.65109   0.70748   1.000
    Zr209   Zr   0.61928   0.88062   0.25002   1.000
    O210    O    0.62244   0.93257   0.25625   1.000
    O211    O    0.65251   0.90976   0.21738   1.000
    O212    O    0.65086   0.89949   0.29248   1.000
    O213    O    0.56747   0.87752   0.24370   1.000
    O214    O    0.60041   0.84902   0.20755   1.000
    O215    O    0.65791   0.84205   0.25000   1.000
loop_
    _geom_bond_atom_site_label_1
    _geom_bond_atom_site_label_2
    _geom_bond_distance
    _geom_bond_site_symmetry_2
    _ccdc_geom_bond_type
    Zr48   O49       1.54618      .   S
    N39    O49       3.43645      .   S
    Zr48   O50       1.16344      .   S
    N19    O50       2.28806      .   S
    Zr48   O51       1.04353      .   S
    N33    O51       3.89655      .   S
    Zr48   O52       1.16299      .   S
    N17    O52       2.28924      .   S
    Zr48   O53       1.17588      .   S
    N17    O53       2.27735      .   S
    Zr48   O54       1.17550      .   S
    N19    O54       2.27699      .   S
    Zr55   O56       1.16299      .   S
    N5     O56       2.28964      .   S
    Zr55   O57       1.54618      .   S
    N36    O57       3.43644      .   S
    Zr55   O58       1.04353      .   S
    N42    O58       3.89650  1_545   S
    Zr55   O59       1.16344      .   S
    N16    O59       2.28807      .   S
    Zr55   O60       1.17550      .   S
    N16    O60       2.27699      .   S
    Zr55   O61       1.17597      .   S
    N5     O61       2.27748      .   S
    Zr62   O63       1.17754      .   S
    N14    O63       2.27450      .   S
    Zr62   O64       1.15832      .   S
    N25    O64       2.29257  1_554   S
    Zr62   O65       1.04294      .   S
    N33    O65       3.89146  1_554   S
    Zr62   O66       1.17667      .   S
    N25    O66       2.27729  1_554   S
    Zr62   O67       1.04347      .   S
    N21    O67       3.89546      .   S
    Zr62   O68       1.16083      .   S
    N14    O68       2.29038      .   S
    Zr69   O70       1.04896      .   S
    N28    O70       3.93223      .   S
    Zr69   O71       1.17685      .   S
    N9     O71       2.27764      .   S
    Zr69   O72       1.16144      .   S
    N9     O72       2.29117      .   S
    Zr69   O73       1.17737      .   S
    N19    O73       2.27448  1_455   S
    Zr69   O74       1.52972      .   S
    N32    O74       3.39794  1_456   S
    Zr69   O75       1.15940      .   S
    N19    O75       2.29118  1_455   S
    Zr76   O77       1.16171      .   S
    N10    O77       2.29104      .   S
    Zr76   O78       1.17670      .   S
    N10    O78       2.27853      .   S
    Zr76   O79       1.17732      .   S
    N29    O79       2.27426      .   S
    Zr76   O80       1.52973      .   S
    N44    O80       3.39798  1_556   S
    Zr76   O81       1.15941      .   S
    N29    O81       2.29088      .   S
    Zr76   O82       1.04896      .   S
    N33    O82       3.93225      .   S
    Zr83   O84       1.52723      .   S
    N26    O84       3.39265  1_565   S
    Zr83   O85       1.16164      .   S
    N18    O85       2.29081  1_565   S
    Zr83   O86       1.17696      .   S
    N12    O86       2.27692      .   S
    Zr83   O87       1.17757      .   S
    N18    O87       2.27540  1_565   S
    Zr83   O88       1.52950      .   S
    N30    O88       3.39777      .   S
    Zr83   O89       1.16210      .   S
    N12    O89       2.29058      .   S
    Zr90   O91       1.16114      .   S
    N11    O91       2.29086  1_545   S
    Zr90   O92       1.15804      .   S
    N0     O92       2.29235  1_554   S
    Zr90   O93       1.17761      .   S
    N11    O93       2.27516  1_545   S
    Zr90   O94       1.04372      .   S
    N46    O94       3.89593      .   S
    Zr90   O95       1.04273      .   S
    N28    O95       3.89124  1_544   S
    Zr90   O96       1.17664      .   S
    N0     O96       2.27688  1_554   S
    Zr97   O98       1.17663      .   S
    N15    O98       2.27547  1_655   S
    Zr97   O99       1.17687      .   S
    N1     O99       2.27645      .   S
    Zr97   O100      1.52884      .   S
    N45    O100      3.39587  1_655   S
    Zr97   O101      1.16161      .   S
    N15    O101      2.28976  1_655   S
    Zr97   O102      1.04360      .   S
    N40    O102      3.89734      .   S
    Zr97   O103      1.16195      .   S
    N1     O103      2.29023      .   S
    Zr104  O105      1.16249      .   S
    N15    O105      2.28950      .   S
    Zr104  O106      1.04775      .   S
    N46    O106      3.93017      .   S
    Zr104  O107      1.17510      .   S
    N20    O107      2.27740      .   S
    Zr104  O108      1.17622      .   S
    N15    O108      2.27634      .   S
    Zr104  O109      1.16320      .   S
    N20    O109      2.28825      .   S
    Zr104  O110      1.53101      .   S
    N8     O110      3.40081  1_455   S
    Zr111  O112      1.52723      .   S
    N2     O112      3.39266  1_565   S
    Zr111  O113      1.17697      .   S
    N38    O113      2.27679      .   S
    Zr111  O114      1.52950      .   S
    N39    O114      3.39777      .   S
    Zr111  O115      1.16164      .   S
    N5     O115      2.29082  1_565   S
    Zr111  O116      1.17757      .   S
    N5     O116      2.27540  1_565   S
    Zr111  O117      1.16214      .   S
    N38    O117      2.29055      .   S
    Zr118  O119      1.16144      .   S
    N0     O119      2.28940      .   S
    Zr118  O120      1.17685      .   S
    N0     O120      2.27411      .   S
    Zr118  O121      1.15941      .   S
    N16    O121      2.29119  1_455   S
    Zr118  O122      1.04895      .   S
    N47    O122      3.93224      .   S
    Zr118  O123      1.52972      .   S
    N8     O123      3.39794  1_456   S
    Zr118  O124      1.17738      .   S
    N16    O124      2.27449  1_455   S
    Zr125  O126      1.17519      .   S
    N4     O126      2.27737      .   S
    Zr125  O127      1.17612      .   S
    N6     O127      2.27706      .   S
    Zr125  O128      1.53100      .   S
    N23    O128      3.40076      .   S
    Zr125  O129      1.04775      .   S
    N21    O129      3.93021      .   S
    Zr125  O130      1.16249      .   S
    N6     O130      2.28953      .   S
    Zr125  O131      1.16320      .   S
    N4     O131      2.28823      .   S
    Zr132  O133      1.17690      .   S
    N38    O133      2.27609      .   S
    Zr132  O134      1.17665      .   S
    N22    O134      2.27558  1_655   S
    Zr132  O135      1.52877      .   S
    N35    O135      3.39575  1_655   S
    Zr132  O136      1.16189      .   S
    N38    O136      2.29017      .   S
    Zr132  O137      1.16168      .   S
    N22    O137      2.28981  1_655   S
    Zr132  O138      1.04366      .   S
    N21    O138      3.89746      .   S
    Zr139  O140      1.16273      .   S
    N12    O140      2.28973      .   S
    Zr139  O141      1.04366      .   S
    N34    O141      3.89745      .   S
    Zr139  O142      1.16168      .   S
    N6     O142      2.28936      .   S
    Zr139  O143      1.17660      .   S
    N6     O143      2.27477      .   S
    Zr139  O144      1.52874      .   S
    N31    O144      3.39566      .   S
    Zr139  O145      1.17689      .   S
    N12    O145      2.27608      .   S
    Zr146  O147      1.17540      .   S
    N7     O147      2.27703      .   S
    Zr146  O148      1.16299      .   S
    N24    O148      2.28924      .   S
    Zr146  O149      1.16344      .   S
    N7     O149      2.28804      .   S
    Zr146  O150      1.17588      .   S
    N24    O150      2.27734      .   S
    Zr146  O151      1.54618      .   S
    N30    O151      3.43645      .   S
    Zr146  O152      1.04352      .   S
    N47    O152      3.89654      .   S
    Zr153  O154      1.16320      .   S
    N11    O154      2.28824      .   S
    Zr153  O155      1.16249      .   S
    N22    O155      2.28951      .   S
    Zr153  O156      1.17622      .   S
    N22    O156      2.27634      .   S
    Zr153  O157      1.53101      .   S
    N32    O157      3.40081  1_455   S
    Zr153  O158      1.04774      .   S
    N34    O158      3.93020      .   S
    Zr153  O159      1.17519      .   S
    N11    O159      2.27737      .   S
    Zr160  O161      1.17695      .   S
    N27    O161      2.27676      .   S
    Zr160  O162      1.52950      .   S
    N13    O162      3.39776      .   S
    Zr160  O163      1.16157      .   S
    N24    O163      2.29084      .   S
    Zr160  O164      1.16217      .   S
    N27    O164      2.29051      .   S
    Zr160  O165      1.17752      .   S
    N24    O165      2.27545      .   S
    Zr160  O166      1.52715      .   S
    N41    O166      3.39239      .   S
    Zr167  O168      1.52880      .   S
    N43    O168      3.39576      .   S
    Zr167  O169      1.04360      .   S
    N46    O169      3.89736      .   S
    Zr167  O170      1.17688      .   S
    N27    O170      2.27646      .   S
    Zr167  O171      1.16191      .   S
    N27    O171      2.29026      .   S
    Zr167  O172      1.17658      .   S
    N3     O172      2.27555      .   S
    Zr167  O173      1.16161      .   S
    N3     O173      2.28977      .   S
    Zr174  O175      1.15940      .   S
    N7     O175      2.29089      .   S
    Zr174  O176      1.16142      .   S
    N25    O176      2.28943      .   S
    Zr174  O177      1.52968      .   S
    N23    O177      3.39784  1_556   S
    Zr174  O178      1.17673      .   S
    N25    O178      2.27498      .   S
    Zr174  O179      1.17731      .   S
    N7     O179      2.27426      .   S
    Zr174  O180      1.04896      .   S
    N42    O180      3.93223      .   S
    Zr181  O182      1.04273      .   S
    N42    O182      3.89142  1_544   S
    Zr181  O183      1.04372      .   S
    N40    O183      3.89592      .   S
    Zr181  O184      1.17761      .   S
    N4     O184      2.27516  1_545   S
    Zr181  O185      1.15803      .   S
    N10    O185      2.29051  1_554   S
    Zr181  O186      1.16112      .   S
    N4     O186      2.29087  1_545   S
    Zr181  O187      1.17663      .   S
    N10    O187      2.27347  1_554   S
    Zr188  O189      1.04372      .   S
    N34    O189      3.89591      .   S
    Zr188  O190      1.17757      .   S
    N20    O190      2.27493      .   S
    Zr188  O191      1.17663      .   S
    N9     O191      2.27340  1_554   S
    Zr188  O192      1.04273      .   S
    N47    O192      3.89096  1_554   S
    Zr188  O193      1.15803      .   S
    N9     O193      2.29051  1_554   S
    Zr188  O194      1.16112      .   S
    N20    O194      2.29060      .   S
    Zr195  O196      1.52950      .   S
    N36    O196      3.39776      .   S
    Zr195  O197      1.17753      .   S
    N17    O197      2.27546      .   S
    Zr195  O198      1.52721      .   S
    N37    O198      3.39258      .   S
    Zr195  O199      1.16214      .   S
    N1     O199      2.29054      .   S
    Zr195  O200      1.16157      .   S
    N17    O200      2.29085      .   S
    Zr195  O201      1.17696      .   S
    N1     O201      2.27679      .   S
    Zr202  O203      1.53081      .   S
    N44    O203      3.40079      .   S
    Zr202  O204      1.16320      .   S
    N14    O204      2.28823      .   S
    Zr202  O205      1.04775      .   S
    N40    O205      3.93021      .   S
    Zr202  O206      1.17510      .   S
    N14    O206      2.27740      .   S
    Zr202  O207      1.17612      .   S
    N3     O207      2.27618      .   S
    Zr202  O208      1.16249      .   S
    N3     O208      2.28905      .   S
    Zr209  O210      1.17597      .   S
    N18    O210      2.27748      .   S
    Zr209  O211      1.04353      .   S
    N28    O211      3.89668  1_545   S
    Zr209  O212      1.16299      .   S
    N18    O212      2.28964      .   S
    Zr209  O213      1.17540      .   S
    N29    O213      2.27702      .   S
    Zr209  O214      1.16344      .   S
    N29    O214      2.28805      .   S
    Zr209  O215      1.54618      .   S
    N13    O215      3.43644      .   S
