# CIF file generated by openbabel 2.4.90, see http://openbabel.sf.net
data_I
_chemical_name_common ''
_cell_length_a 23.173
_cell_length_b 23.132
_cell_length_c 22.876
_cell_angle_alpha 89.923
_cell_angle_beta 90.038
_cell_angle_gamma 119.768
_space_group_name_H-M_alt 'P 1'
_space_group_name_Hall 'P 1'
loop_
    _symmetry_equiv_pos_as_xyz
    x,y,z
loop_
    _atom_site_label
    _atom_site_type_symbol
    _atom_site_fract_x
    _atom_site_fract_y
    _atom_site_fract_z
    _atom_site_occupancy
    Zr0     Zr   0.26104   0.38083   0.91680   1.000
    Zr1     Zr   0.26104   0.88082   0.91684   1.000
    Zr2     Zr   0.76103   0.38083   0.91684   1.000
    Zr3     Zr   0.76103   0.88082   0.91684   1.000
    Zr4     Zr   0.11890   0.23864   0.58320   1.000
    Zr5     Zr   0.11890   0.73863   0.58321   1.000
    Zr6     Zr   0.61889   0.23864   0.58320   1.000
    Zr7     Zr   0.61889   0.73863   0.58321   1.000
    Zr8     Zr   0.11929   0.38063   0.25002   1.000
    Zr9     Zr   0.11929   0.88062   0.25002   1.000
    Zr10    Zr   0.61928   0.38063   0.25002   1.000
    Zr11    Zr   0.61928   0.88062   0.25002   1.000
    Zr12    Zr   0.23876   0.11903   0.41682   1.000
    Zr13    Zr   0.23876   0.61902   0.41682   1.000
    Zr14    Zr   0.73875   0.11903   0.41682   1.000
    Zr15    Zr   0.73875   0.61902   0.41682   1.000
    Zr16    Zr   0.38118   0.26124   0.08330   1.000
    Zr17    Zr   0.38118   0.76123   0.08330   1.000
    Zr18    Zr   0.88117   0.26124   0.08330   1.000
    Zr19    Zr   0.88117   0.76123   0.08330   1.000
    Zr20    Zr   0.38079   0.11952   0.74997   1.000
    Zr21    Zr   0.38079   0.61951   0.74997   1.000
    Zr22    Zr   0.88078   0.11952   0.74997   1.000
    Zr23    Zr   0.88078   0.61951   0.74997   1.000
    N24     N    0.82328   0.82328   0.00020   1.000
    O25     O    0.85848   0.87428   0.92897   1.000
    O26     O    0.73643   0.81764   0.00134   1.000
    O27     O    0.81767   0.73631   0.99875   1.000
    O28     O    0.87460   0.85883   0.07093   1.000
    N29     N    0.17653   0.67648   0.50008   1.000
    O30     O    0.26340   0.68217   0.50163   1.000
    O31     O    0.18229   0.76352   0.49855   1.000
    O32     O    0.12536   0.64097   0.57108   1.000
    O33     O    0.14130   0.62555   0.42895   1.000
    N34     N    0.24394   0.98700   0.58340   1.000
    O35     O    0.24481   0.03611   0.51818   1.000
    N36     N    0.49972   0.67680   0.66645   1.000
    O37     O    0.41859   0.68267   0.66498   1.000
    O38     O    0.58059   0.76361   0.66798   1.000
    O39     O    0.48443   0.62561   0.73756   1.000
    O40     O    0.51540   0.64127   0.59542   1.000
    N41     N    0.32312   0.00036   0.83361   1.000
    O42     O    0.31747   0.08168   0.83484   1.000
    O43     O    0.37436   0.01562   0.76259   1.000
    O44     O    0.35845   0.98450   0.90473   1.000
    O45     O    0.23638   0.91936   0.83195   1.000
    N46     N    0.17671   0.99970   0.33357   1.000
    O47     O    0.26350   0.08063   0.33196   1.000
    O48     O    0.12562   0.98453   0.26247   1.000
    O49     O    0.14136   0.01540   0.40465   1.000
    O50     O    0.18245   0.91836   0.33494   1.000
    N51     N    0.49972   0.17681   0.66640   1.000
    O52     O    0.41859   0.18268   0.66498   1.000
    O53     O    0.48443   0.12562   0.73756   1.000
    O54     O    0.58059   0.26362   0.66798   1.000
    O55     O    0.51540   0.14128   0.59542   1.000
    N56     N    0.50046   0.32326   0.16635   1.000
    O57     O    0.48470   0.35874   0.09525   1.000
    O58     O    0.41955   0.23638   0.16798   1.000
    O59     O    0.51566   0.37443   0.23738   1.000
    O60     O    0.58153   0.31742   0.16508   1.000
    N61     N    0.01308   0.75617   0.91659   1.000
    O62     O    0.96389   0.70789   0.85146   1.000
    O63     O    0.96398   0.75535   0.98178   1.000
    N64     N    0.82327   0.32329   0.00000   1.000
    O65     O    0.87460   0.35884   0.07093   1.000
    O66     O    0.85848   0.37429   0.92897   1.000
    O67     O    0.81767   0.23632   0.99875   1.000
    O68     O    0.73643   0.31765   0.00134   1.000
    N69     N    0.32329   0.82328   0.00000   1.000
    O70     O    0.35849   0.87428   0.92897   1.000
    O71     O    0.31768   0.73631   0.99872   1.000
    O72     O    0.23644   0.81764   0.00134   1.000
    O73     O    0.37461   0.85883   0.07103   1.000
    N74     N    0.82311   0.00036   0.83361   1.000
    O75     O    0.81746   0.08168   0.83484   1.000
    O76     O    0.87435   0.01563   0.76259   1.000
    O77     O    0.85844   0.98450   0.90473   1.000
    O78     O    0.73637   0.91936   0.83195   1.000
    N79     N    0.67652   0.17649   0.50008   1.000
    O80     O    0.76339   0.18218   0.50163   1.000
    O81     O    0.68228   0.26353   0.49846   1.000
    O82     O    0.62535   0.14098   0.57105   1.000
    O83     O    0.64128   0.12556   0.42893   1.000
    N84     N    0.74382   0.75637   0.25000   1.000
    O85     O    0.69654   0.80348   0.24997   1.000
    O86     O    0.74450   0.70786   0.31523   1.000
    N87     N    0.32312   0.50035   0.83361   1.000
    O88     O    0.23638   0.41937   0.83194   1.000
    O89     O    0.31747   0.58167   0.83484   1.000
    O90     O    0.35845   0.48450   0.90472   1.000
    O91     O    0.37436   0.51562   0.76259   1.000
    N92     N    0.99973   0.67680   0.66645   1.000
    O93     O    0.01540   0.64127   0.59542   1.000
    O94     O    0.91858   0.68267   0.66498   1.000
    O95     O    0.08060   0.76361   0.66798   1.000
    O96     O    0.98443   0.62561   0.73756   1.000
    N97     N    0.00047   0.82325   0.16635   1.000
    O98     O    0.08155   0.81741   0.16508   1.000
    O99     O    0.98470   0.85873   0.09525   1.000
    O100    O    0.01567   0.87442   0.23738   1.000
    O101    O    0.91954   0.73637   0.16798   1.000
    N102    N    0.17671   0.49970   0.33357   1.000
    O103    O    0.26350   0.58062   0.33197   1.000
    O104    O    0.18245   0.41837   0.33494   1.000
    O105    O    0.14136   0.51540   0.40465   1.000
    O106    O    0.12562   0.48453   0.26247   1.000
    N107    N    0.67670   0.99970   0.33357   1.000
    O108    O    0.76349   0.08063   0.33196   1.000
    O109    O    0.64135   0.01540   0.40465   1.000
    O110    O    0.62561   0.98453   0.26247   1.000
    O111    O    0.68244   0.91836   0.33494   1.000
    N112    N    0.00047   0.32326   0.16635   1.000
    O113    O    0.08154   0.31742   0.16508   1.000
    O114    O    0.01567   0.37443   0.23738   1.000
    O115    O    0.98470   0.35874   0.09525   1.000
    O116    O    0.91954   0.23638   0.16798   1.000
    N117    N    0.82311   0.50035   0.83361   1.000
    O118    O    0.81746   0.58167   0.83484   1.000
    O119    O    0.87435   0.51562   0.76259   1.000
    O120    O    0.85844   0.48450   0.90473   1.000
    O121    O    0.73637   0.41937   0.83195   1.000
    N122    N    0.25631   0.24360   0.75008   1.000
    O123    O    0.32867   0.17204   0.74993   1.000
    O124    O    0.25249   0.31404   0.85156   1.000
    O125    O    0.18544   0.24696   0.64862   1.000
    N126    N    0.99973   0.17681   0.66645   1.000
    O127    O    0.01540   0.14128   0.59542   1.000
    O128    O    0.91858   0.18268   0.66498   1.000
    O129    O    0.98443   0.12562   0.73756   1.000
    O130    O    0.08060   0.26362   0.66798   1.000
    N131    N    0.51308   0.25618   0.91659   1.000
    O132    O    0.46398   0.25536   0.98178   1.000
    O133    O    0.46390   0.20790   0.85146   1.000
    N134    N    0.67670   0.49970   0.33357   1.000
    O135    O    0.64135   0.51540   0.40465   1.000
    O136    O    0.62561   0.48453   0.26247   1.000
    O137    O    0.68244   0.41838   0.33494   1.000
    O138    O    0.76349   0.58062   0.33197   1.000
    N139    N    0.32329   0.32329   0.00020   1.000
    O140    O    0.31767   0.23632   0.99875   1.000
    O141    O    0.23644   0.31765   0.00133   1.000
    O142    O    0.35849   0.37429   0.92897   1.000
    O143    O    0.37461   0.35884   0.07102   1.000
    N144    N    0.74393   0.98700   0.58340   1.000
    O145    O    0.74480   0.03611   0.51818   1.000
    N146    N    0.67652   0.67648   0.50008   1.000
    O147    O    0.62535   0.64097   0.57108   1.000
    O148    O    0.76339   0.68217   0.50164   1.000
    O149    O    0.64129   0.62555   0.42895   1.000
    O150    O    0.68228   0.76352   0.49856   1.000
    N151    N    0.75615   0.01318   0.08330   1.000
    O152    O    0.68575   0.93890   0.18474   1.000
    O153    O    0.75182   0.93895   0.98175   1.000
    O154    O    0.82897   0.15676   0.08355   1.000
    N155    N    0.50046   0.82325   0.16635   1.000
    O156    O    0.51566   0.87442   0.23738   1.000
    O157    O    0.41955   0.73637   0.16798   1.000
    O158    O    0.58153   0.81741   0.16508   1.000
    O159    O    0.48470   0.85873   0.09525   1.000
    N160    N    0.74382   0.25638   0.25000   1.000
    O161    O    0.69654   0.30349   0.24997   1.000
    O162    O    0.74450   0.20787   0.31523   1.000
    N163    N    0.48688   0.24378   0.41661   1.000
    O164    O    0.53602   0.24464   0.48178   1.000
    N165    N    0.01307   0.25618   0.91659   1.000
    O166    O    0.96389   0.20790   0.85146   1.000
    O167    O    0.96398   0.25536   0.98178   1.000
    N168    N    0.25617   0.51317   0.08330   1.000
    O169    O    0.25183   0.43896   0.98174   1.000
    O170    O    0.32898   0.65675   0.08355   1.000
    O171    O    0.18576   0.43891   0.18474   1.000
    N172    N    0.75630   0.24360   0.75008   1.000
    O173    O    0.75248   0.31404   0.85157   1.000
    O174    O    0.82866   0.17204   0.74990   1.000
    O175    O    0.68543   0.24696   0.64862   1.000
    N176    N    0.98689   0.24378   0.41661   1.000
    O177    O    0.03602   0.24464   0.48178   1.000
    N178    N    0.24383   0.75637   0.25000   1.000
    O179    O    0.19655   0.80348   0.24997   1.000
    O180    O    0.24451   0.70786   0.31523   1.000
    N181    N    0.24394   0.48700   0.58340   1.000
    O182    O    0.24481   0.53610   0.51818   1.000
    N183    N    0.17653   0.17649   0.50008   1.000
    O184    O    0.18229   0.26353   0.49855   1.000
    O185    O    0.26340   0.18218   0.50163   1.000
    O186    O    0.14129   0.12556   0.42895   1.000
    O187    O    0.12536   0.14098   0.57105   1.000
    N188    N    0.24383   0.25638   0.25000   1.000
    O189    O    0.19655   0.30349   0.24997   1.000
    O190    O    0.24451   0.20787   0.31524   1.000
    N191    N    0.25631   0.74359   0.75008   1.000
    O192    O    0.32867   0.67203   0.74993   1.000
    O193    O    0.18544   0.74695   0.64862   1.000
    O194    O    0.25249   0.81403   0.85157   1.000
    N195    N    0.74393   0.48700   0.58339   1.000
    O196    O    0.74480   0.53610   0.51817   1.000
    N197    N    0.25617   0.01318   0.08331   1.000
    O198    O    0.32898   0.15676   0.08355   1.000
    O199    O    0.18576   0.93890   0.18474   1.000
    O200    O    0.25183   0.93895   0.98175   1.000
    N201    N    0.48689   0.74377   0.41661   1.000
    O202    O    0.53602   0.74463   0.48178   1.000
    N203    N    0.51308   0.75617   0.91658   1.000
    O204    O    0.46390   0.70789   0.85143   1.000
    O205    O    0.46398   0.75535   0.98178   1.000
    N206    N    0.98689   0.74377   0.41661   1.000
    O207    O    0.03602   0.74463   0.48178   1.000
    N208    N    0.75630   0.74359   0.75008   1.000
    O209    O    0.82866   0.67203   0.74993   1.000
    O210    O    0.68543   0.74695   0.64862   1.000
    O211    O    0.75248   0.81403   0.85157   1.000
    N212    N    0.75616   0.51317   0.08330   1.000
    O213    O    0.82897   0.65675   0.08355   1.000
    O214    O    0.68575   0.43891   0.18474   1.000
    O215    O    0.75182   0.43896   0.98175   1.000
loop_
    _geom_bond_atom_site_label_1
    _geom_bond_atom_site_label_2
    _geom_bond_distance
    _geom_bond_site_symmetry_2
    _ccdc_geom_bond_type
    N24    O25       1.93726  1_554   S
    Zr3    O25       2.35328      .   S
    N24    O26       1.95127      .   S
    Zr3    O26       2.31607  1_556   S
    N24    O27       1.95081  1_554   S
    Zr19   O27       2.32288  1_554   S
    N24    O28       1.93343      .   S
    Zr19   O28       2.35369      .   S
    N29    O30       1.95115      .   S
    Zr13   O30       2.32428      .   S
    N29    O31       1.95105      .   S
    Zr5    O31       2.32390      .   S
    N29    O32       1.93664      .   S
    Zr5    O32       2.35373      .   S
    N29    O33       1.93668      .   S
    Zr13   O33       2.35391      .   S
    N34    O35       1.86808  1_565   S
    Zr12   O35       3.05446      .   S
    N36    O37       1.95109      .   S
    Zr21   O37       2.32498      .   S
    N36    O38       1.95165      .   S
    Zr7    O38       2.32322      .   S
    N36    O39       1.93726      .   S
    Zr21   O39       2.35223      .   S
    N36    O40       1.93627      .   S
    Zr7    O40       2.35316      .   S
    N41    O42       1.94979      .   S
    Zr20   O42       2.32641      .   S
    N41    O43       1.93870      .   S
    Zr20   O43       2.35037      .   S
    N41    O44       1.93554  1_545   S
    Zr1    O44       2.35523      .   S
    N41    O45       1.95260  1_545   S
    Zr1    O45       2.32223      .   S
    N46    O47       1.95239  1_565   S
    Zr12   O47       2.32328      .   S
    N46    O48       1.93826      .   S
    Zr9    O48       2.35195      .   S
    N46    O49       1.93535  1_565   S
    Zr12   O49       2.35514      .   S
    N46    O50       1.95121      .   S
    Zr9    O50       2.32598      .   S
    N51    O52       1.95108      .   S
    Zr20   O52       2.32498      .   S
    N51    O53       1.93821      .   S
    Zr20   O53       2.35224      .   S
    N51    O54       1.95167      .   S
    Zr6    O54       2.32335      .   S
    N51    O55       1.93535      .   S
    Zr6    O55       2.35320      .   S
    N56    O57       1.93548      .   S
    Zr16   O57       2.35463      .   S
    N56    O58       1.95299      .   S
    Zr16   O58       2.31881      .   S
    N56    O59       1.93800      .   S
    Zr10   O59       2.35079      .   S
    N56    O60       1.94949      .   S
    Zr10   O60       2.32688      .   S
    N61    O62       1.87210  1_455   S
    Zr23   O62       3.06203      .   S
    N61    O63       1.87068  1_455   S
    Zr19   O63       3.05944  1_554   S
    N64    O65       1.93733      .   S
    Zr18   O65       2.35369      .   S
    N64    O66       1.93349  1_554   S
    Zr2    O66       2.35326      .   S
    N64    O67       1.95059  1_554   S
    Zr18   O67       2.32289  1_554   S
    N64    O68       1.95134      .   S
    Zr2    O68       2.31606  1_556   S
    N69    O70       1.93364  1_554   S
    Zr1    O70       2.35326      .   S
    N69    O71       1.95062  1_554   S
    Zr17   O71       2.32342  1_554   S
    N69    O72       1.95132      .   S
    Zr1    O72       2.31607  1_556   S
    N69    O73       1.93925      .   S
    Zr17   O73       2.35341      .   S
    N74    O75       1.94980      .   S
    Zr22   O75       2.32640      .   S
    N74    O76       1.93869      .   S
    Zr22   O76       2.35038      .   S
    N74    O77       1.93554  1_545   S
    Zr3    O77       2.35522      .   S
    N74    O78       1.95260  1_545   S
    Zr3    O78       2.32227      .   S
    N79    O80       1.95117      .   S
    Zr14   O80       2.32421      .   S
    N79    O81       1.95108      .   S
    Zr6    O81       2.32547      .   S
    N79    O82       1.93606      .   S
    Zr6    O82       2.35377      .   S
    N79    O83       1.93693      .   S
    Zr14   O83       2.35391      .   S
    N84    O85       1.89026      .   S
    Zr11   O85       3.09236      .   S
    N84    O86       1.87063      .   S
    Zr15   O86       3.05900      .   S
    N87    O88       1.95244      .   S
    Zr0    O88       2.32166      .   S
    N87    O89       1.94980      .   S
    Zr21   O89       2.32640      .   S
    N87    O90       1.93523      .   S
    Zr0    O90       2.35507      .   S
    N87    O91       1.93866      .   S
    Zr21   O91       2.35020      .   S
    N92    O93       1.93618  1_655   S
    Zr5    O93       2.35327      .   S
    N92    O94       1.95160      .   S
    Zr23   O94       2.32498      .   S
    N92    O95       1.95165  1_655   S
    Zr5    O95       2.32321      .   S
    N92    O96       1.93722      .   S
    Zr23   O96       2.35244      .   S
    N97    O98       1.94952      .   S
    Zr9    O98       2.32688      .   S
    N97    O99       1.93559  1_455   S
    Zr19   O99       2.35475      .   S
    N97    O100      1.93802      .   S
    Zr9    O100      2.35100      .   S
    N97    O101      1.95320  1_455   S
    Zr19   O101      2.31881      .   S
    N102   O103      1.95238      .   S
    Zr13   O103      2.32315      .   S
    N102   O104      1.95073      .   S
    Zr8    O104      2.32598      .   S
    N102   O105      1.93544      .   S
    Zr13   O105      2.35505      .   S
    N102   O106      1.93831      .   S
    Zr8    O106      2.35176      .   S
    N107   O108      1.95238  1_565   S
    Zr14   O108      2.32328      .   S
    N107   O109      1.93535  1_565   S
    Zr14   O109      2.35513      .   S
    N107   O110      1.93827      .   S
    Zr11   O110      2.35194      .   S
    N107   O111      1.95121      .   S
    Zr11   O111      2.32599      .   S
    N112   O113      1.94951      .   S
    Zr8    O113      2.32688      .   S
    N112   O114      1.93802      .   S
    Zr8    O114      2.35099      .   S
    N112   O115      1.93558  1_455   S
    Zr18   O115      2.35474      .   S
    N112   O116      1.95320  1_455   S
    Zr18   O116      2.31880      .   S
    N117   O118      1.94981      .   S
    Zr23   O118      2.32640      .   S
    N117   O119      1.93865      .   S
    Zr23   O119      2.35020      .   S
    N117   O120      1.93541      .   S
    Zr2    O120      2.35514      .   S
    N117   O121      1.95243      .   S
    Zr2    O121      2.32224      .   S
    N122   O123      2.88248      .   S
    Zr20   O123      2.09549      .   S
    N122   O124      2.86458      .   S
    Zr0    O124      2.08694      .   S
    N122   O125      2.86556      .   S
    Zr4    O125      2.08733      .   S
    N126   O127      1.93623  1_655   S
    Zr4    O127      2.35330      .   S
    N126   O128      1.95161      .   S
    Zr22   O128      2.32497      .   S
    N126   O129      1.93722      .   S
    Zr22   O129      2.35244      .   S
    N126   O130      1.95164  1_655   S
    Zr4    O130      2.32336      .   S
    N131   O132      1.87061      .   S
    Zr16   O132      3.05936  1_554   S
    N131   O133      1.87206      .   S
    Zr20   O133      3.06200      .   S
    N134   O135      1.93543      .   S
    Zr15   O135      2.35504      .   S
    N134   O136      1.93830      .   S
    Zr10   O136      2.35176      .   S
    N134   O137      1.95075      .   S
    Zr10   O137      2.32599      .   S
    N134   O138      1.95237      .   S
    Zr15   O138      2.32314      .   S
    N139   O140      1.95081  1_554   S
    Zr16   O140      2.32284  1_554   S
    N139   O141      1.95126      .   S
    Zr0    O141      2.31663  1_556   S
    N139   O142      1.93741  1_554   S
    Zr0    O142      2.35333      .   S
    N139   O143      1.93528      .   S
    Zr16   O143      2.35345      .   S
    N144   O145      1.86808  1_565   S
    Zr14   O145      3.05445      .   S
    N146   O147      1.93663      .   S
    Zr7    O147      2.35376      .   S
    N146   O148      1.95116      .   S
    Zr15   O148      2.32435      .   S
    N146   O149      1.93663      .   S
    Zr15   O149      2.35390      .   S
    N146   O150      1.95105      .   S
    Zr7    O150      2.32382      .   S
    N151   O152      2.86531  1_545   S
    Zr11   O152      2.08706      .   S
    N151   O153      2.86264  1_544   S
    Zr3    O153      2.08546      .   S
    N151   O154      2.88332      .   S
    Zr18   O154      2.09791      .   S
    N155   O156      1.93800      .   S
    Zr11   O156      2.35080      .   S
    N155   O157      1.95299      .   S
    Zr17   O157      2.31882      .   S
    N155   O158      1.94950      .   S
    Zr11   O158      2.32687      .   S
    N155   O159      1.93548      .   S
    Zr17   O159      2.35463      .   S
    N160   O161      1.89027      .   S
    Zr10   O161      3.09236      .   S
    N160   O162      1.87063      .   S
    Zr14   O162      3.05900      .   S
    N163   O164      1.86947      .   S
    Zr6    O164      3.05749      .   S
    N165   O166      1.87210  1_455   S
    Zr22   O166      3.06202      .   S
    N165   O167      1.87068  1_455   S
    Zr18   O167      3.05944  1_554   S
    N168   O169      2.86264  1_554   S
    Zr0    O169      2.08589      .   S
    N168   O170      2.88333      .   S
    Zr17   O170      2.09792      .   S
    N168   O171      2.86518      .   S
    Zr8    O171      2.08705      .   S
    N172   O173      2.86476      .   S
    Zr2    O173      2.08744      .   S
    N172   O174      2.88247      .   S
    Zr22   O174      2.09548      .   S
    N172   O175      2.86555      .   S
    Zr6    O175      2.08732      .   S
    N176   O177      1.86953  1_655   S
    Zr4    O177      3.05754      .   S
    N178   O179      1.89026      .   S
    Zr9    O179      3.09236      .   S
    N178   O180      1.87063      .   S
    Zr13   O180      3.05900      .   S
    N181   O182      1.86802      .   S
    Zr13   O182      3.05441      .   S
    N183   O184      1.95105      .   S
    Zr4    O184      2.32377      .   S
    N183   O185      1.95116      .   S
    Zr12   O185      2.32428      .   S
    N183   O186      1.93668      .   S
    Zr12   O186      2.35393      .   S
    N183   O187      1.93604      .   S
    Zr4    O187      2.35380      .   S
    N188   O189      1.89027      .   S
    Zr8    O189      3.09236      .   S
    N188   O190      1.87063      .   S
    Zr12   O190      3.05901      .   S
    N191   O192      2.88247      .   S
    Zr21   O192      2.09550      .   S
    N191   O193      2.86550      .   S
    Zr5    O193      2.08720      .   S
    N191   O194      2.86477      .   S
    Zr1    O194      2.08745      .   S
    N195   O196      1.86789      .   S
    Zr15   O196      3.05430      .   S
    N197   O198      2.88332      .   S
    Zr16   O198      2.09791      .   S
    N197   O199      2.86513  1_545   S
    Zr9    O199      2.08705      .   S
    N197   O200      2.86282  1_544   S
    Zr1    O200      2.08545      .   S
    N201   O202      1.86951      .   S
    Zr7    O202      3.05760      .   S
    N203   O204      1.87230      .   S
    Zr21   O204      3.06161      .   S
    N203   O205      1.87070      .   S
    Zr17   O205      3.05946  1_554   S
    N206   O207      1.86958  1_655   S
    Zr5    O207      3.05768      .   S
    N208   O209      2.88244      .   S
    Zr23   O209      2.09549      .   S
    N208   O210      2.86552      .   S
    Zr7    O210      2.08721      .   S
    N208   O211      2.86478      .   S
    Zr3    O211      2.08744      .   S
    N212   O213      2.88332      .   S
    Zr19   O213      2.09791      .   S
    N212   O214      2.86517      .   S
    Zr10   O214      2.08705      .   S
    N212   O215      2.86236  1_554   S
    Zr2    O215      2.08546      .   S
