# CIF file generated by openbabel 2.4.90, see http://openbabel.sf.net
data_I
_chemical_name_common ''
_cell_length_a 10.804
_cell_length_b 10.809
_cell_length_c 18.389
_cell_angle_alpha 73.81
_cell_angle_beta 73.85
_cell_angle_gamma 77.841
_space_group_name_H-M_alt 'P 1'
_space_group_name_Hall 'P 1'
loop_
    _symmetry_equiv_pos_as_xyz
    x,y,z
loop_
    _atom_site_label
    _atom_site_type_symbol
    _atom_site_fract_x
    _atom_site_fract_y
    _atom_site_fract_z
    _atom_site_occupancy
    Lv0     Lv   0.43747   0.03723   0.36987   1.000
    Lv1     Lv   0.56190   0.96379   0.63007   1.000
    Lv2     Lv   0.00029   0.49982   0.50008   1.000
    Lv3     Lv   0.96373   0.56183   0.13158   1.000
    Lv4     Lv   0.50000   0.00032   0.00001   1.000
    Lv5     Lv   0.03701   0.43783   0.86977   1.000
