# CIF file generated by openbabel 2.4.90, see http://openbabel.sf.net
data_I
_chemical_name_common ''
_cell_length_a 10.804
_cell_length_b 10.809
_cell_length_c 18.389
_cell_angle_alpha 73.81
_cell_angle_beta 73.85
_cell_angle_gamma 77.841
_space_group_name_H-M_alt 'P 1'
_space_group_name_Hall 'P 1'
loop_
    _symmetry_equiv_pos_as_xyz
    x,y,z
loop_
    _atom_site_label
    _atom_site_type_symbol
    _atom_site_fract_x
    _atom_site_fract_y
    _atom_site_fract_z
    _atom_site_occupancy
    H0      H    0.78733   0.56615   0.58581   1.000
    H1      H    0.11573   0.51025   0.72589   1.000
    H2      H    0.00492   0.41727   0.38592   1.000
    H3      H    0.19738   0.36008   0.95289   1.000
    H4      H    0.95868   0.36281   0.01324   1.000
    H5      H    0.87597   0.51756   0.78716   1.000
    H6      H    0.43487   0.21328   0.91374   1.000
    H7      H    0.48999   0.88510   0.77399   1.000
    H8      H    0.58116   0.99618   0.11464   1.000
    H9      H    0.63865   0.80373   0.54698   1.000
    H10     H    0.63691   0.04189   0.48658   1.000
    H11     H    0.48256   0.12451   0.71260   1.000
    H12     H    0.21331   0.43385   0.41441   1.000
    H13     H    0.88506   0.48991   0.27428   1.000
    H14     H    0.99606   0.58180   0.61425   1.000
    H15     H    0.80325   0.63910   0.04729   1.000
    H16     H    0.04166   0.63692   0.00000   1.000
    H17     H    0.12508   0.48196   0.21255   1.000
    H18     H    0.56544   0.78741   0.08638   1.000
    H19     H    0.50983   0.11629   0.22612   1.000
    H20     H    0.41824   0.00497   0.88532   1.000
    H21     H    0.35981   0.19771   0.45309   1.000
    H22     H    0.36277   0.95832   0.51319   1.000
    H23     H    0.51717   0.87606   0.28709   1.000
    C24     C    0.88294   0.49095   0.48388   1.000
    C25     C    0.90391   0.44237   0.90366   1.000
    C26     C    0.16994   0.43668   0.83608   1.000
    C27     C    0.88066   0.53717   0.54851   1.000
    C28     C    0.08010   0.47878   0.78870   1.000
    C29     C    0.00377   0.45363   0.43571   1.000
    C30     C    0.12654   0.39281   0.91697   1.000
    C31     C    0.99412   0.39481   0.95059   1.000
    C32     C    0.94773   0.48210   0.82247   1.000
    C33     C    0.50901   0.11714   0.01610   1.000
    C34     C    0.55759   0.09654   0.59614   1.000
    C35     C    0.56267   0.83112   0.66379   1.000
    C36     C    0.46318   0.11985   0.95120   1.000
    C37     C    0.52135   0.92083   0.71118   1.000
    C38     C    0.54554   0.99699   0.06461   1.000
    C39     C    0.60647   0.87452   0.58289   1.000
    C40     C    0.60503   0.00687   0.54925   1.000
    C41     C    0.51774   0.05278   0.67732   1.000
    C42     C    0.11712   0.50906   0.51628   1.000
    C43     C    0.09675   0.55721   0.09613   1.000
    C44     C    0.83088   0.56289   0.16408   1.000
    C45     C    0.11986   0.46263   0.45165   1.000
    C46     C    0.92070   0.52132   0.21146   1.000
    C47     C    0.99695   0.54568   0.56441   1.000
    C48     C    0.87417   0.60672   0.08317   1.000
    C49     C    0.00654   0.60493   0.04950   1.000
    C50     C    0.05318   0.51732   0.17733   1.000
    C51     C    0.49148   0.88286   0.98391   1.000
    C52     C    0.44217   0.90378   0.40360   1.000
    C53     C    0.43635   0.17035   0.33629   1.000
    C54     C    0.53697   0.88069   0.04884   1.000
    C55     C    0.47824   0.08062   0.28892   1.000
    C56     C    0.45412   0.00381   0.93531   1.000
    C57     C    0.39235   0.12694   0.41718   1.000
    C58     C    0.39398   0.99457   0.45080   1.000
    C59     C    0.48200   0.94770   0.32242   1.000
loop_
    _geom_bond_atom_site_label_1
    _geom_bond_atom_site_label_2
    _geom_bond_distance
    _geom_bond_site_symmetry_2
    _ccdc_geom_bond_type
    H16    C49       0.88294      .   S
    H4     C31       1.08710  1_554   S
    C33    C38       1.40424  1_545   S
    C33    C36       1.40479  1_554   S
    H15    C48       1.08824      .   S
    C54    C38       1.39306      .   S
    C54    H18       1.08955      .   S
    C54    C51       1.40484  1_554   S
    C49    C48       1.38981  1_455   S
    C49    C43       1.39929      .   S
    C38    H8        1.08874      .   S
    C48    C44       1.40359      .   S
    C43    C50       1.40444      .   S
    C44    C46       1.40387      .   S
    C50    C46       1.39065  1_455   S
    C50    H17       1.08886      .   S
    C46    H13       1.08937      .   S
    H19    C55       1.08929      .   S
    H23    C59       1.08884      .   S
    C55    C59       1.39318  1_545   S
    C55    C53       1.40403      .   S
    C59    C52       1.40448      .   S
    C53    C57       1.40349      .   S
    H2     C29       1.08874      .   S
    C52    C58       1.41271      .   S
    H12    C45       1.08949      .   S
    C57    C58       1.38989  1_545   S
    C57    H21       1.08821      .   S
    C29    C45       1.39290      .   S
    C29    C24       1.40915  1_455   S
    C58    H22       1.08327      .   S
    C45    C42       1.40426      .   S
    C24    C27       1.40443      .   S
    H10    C40       1.08668      .   S
    C42    C47       1.40188  1_455   S
    H9     C39       1.08824      .   S
    C27    C47       1.39310      .   S
    C27    H0        1.08958      .   S
    C40    C39       1.38994  1_545   S
    C40    C34       1.39885      .   S
    C47    H14       1.08876      .   S
    C39    C35       1.40360      .   S
    C34    C41       1.40434      .   S
    C35    C37       1.40396      .   S
    C41    C37       1.38494  1_545   S
    C41    H11       1.08885      .   S
    C37    H7        1.08937      .   S
    H1     C28       1.08931      .   S
    H5     C32       1.08885      .   S
    C28    C32       1.38891  1_455   S
    C28    C26       1.40410      .   S
    C32    C25       1.40448      .   S
    C26    C30       1.40346      .   S
    H20    C56       1.08876      .   S
    C25    C31       1.40301      .   S
    H6     C36       1.08950      .   S
    C30    C31       1.38988  1_455   S
    C30    H3        1.08823      .   S
    C56    C36       1.39295      .   S
    C56    C51       1.41328  1_545   S
