# CIF file generated by openbabel 2.4.90, see http://openbabel.sf.net
data_I
_chemical_name_common ''
_cell_length_a 10.804
_cell_length_b 10.809
_cell_length_c 18.389
_cell_angle_alpha 73.81
_cell_angle_beta 73.85
_cell_angle_gamma 77.841
_space_group_name_H-M_alt 'P 1'
_space_group_name_Hall 'P 1'
loop_
    _symmetry_equiv_pos_as_xyz
    x,y,z
loop_
    _atom_site_label
    _atom_site_type_symbol
    _atom_site_fract_x
    _atom_site_fract_y
    _atom_site_fract_z
    _atom_site_occupancy
    C0      C    0.31103   0.44498   0.80051   1.000
    C1      C    0.76144   0.45671   0.93978   1.000
    C2      C    0.75968   0.48283   0.46456   1.000
    C3      C    0.55335   0.69026   0.69934   1.000
    C4      C    0.54345   0.23895   0.56002   1.000
    C5      C    0.51746   0.24002   0.03559   1.000
    C6      C    0.68998   0.55366   0.19957   1.000
    C7      C    0.23916   0.54284   0.05994   1.000
    C8      C    0.24001   0.51746   0.53584   1.000
    C9      C    0.44503   0.31130   0.30066   1.000
    C10     C    0.45641   0.76130   0.43970   1.000
    C11     C    0.48364   0.75954   0.96464   1.000
    O12     O    0.35010   0.46739   0.72707   1.000
    O13     O    0.38555   0.43015   0.84657   1.000
    O14     O    0.64799   0.51443   0.50857   1.000
    O15     O    0.68497   0.49893   0.89320   1.000
    O16     O    0.76566   0.44722   0.40325   1.000
    O17     O    0.72380   0.42953   0.01375   1.000
    O18     O    0.53018   0.65107   0.77282   1.000
    O19     O    0.56810   0.61604   0.65319   1.000
    O20     O    0.48720   0.35194   0.99128   1.000
    O21     O    0.50266   0.31542   0.60656   1.000
    O22     O    0.55206   0.23352   0.09732   1.000
    O23     O    0.56935   0.27651   0.48604   1.000
    O24     O    0.65067   0.53068   0.27303   1.000
    O25     O    0.61590   0.56816   0.15334   1.000
    O26     O    0.35205   0.48677   0.49182   1.000
    O27     O    0.31572   0.50092   0.10645   1.000
    O28     O    0.23346   0.55240   0.59744   1.000
    O29     O    0.27664   0.56969   0.00000   1.000
    O30     O    0.46804   0.35017   0.22719   1.000
    O31     O    0.42983   0.38591   0.34668   1.000
    O32     O    0.51424   0.64800   0.00913   1.000
    O33     O    0.49846   0.68496   0.39310   1.000
    O34     O    0.44929   0.76541   0.90293   1.000
    O35     O    0.42946   0.72355   0.51366   1.000
loop_
    _geom_bond_atom_site_label_1
    _geom_bond_atom_site_label_2
    _geom_bond_distance
    _geom_bond_site_symmetry_2
    _ccdc_geom_bond_type
    O29    C7        1.04206      .   S
    O32    C11       1.29025  1_554   S
    O17    C1        1.27340  1_554   S
    C5     O22       1.27042      .   S
    C5     O20       1.29073  1_554   S
    C7     O27       1.28090      .   S
    O25    C6        1.28024      .   S
    C6     O24       1.26695      .   S
    O30    C9        1.26659      .   S
    C9     O31       1.28098      .   S
    O33    C10       1.28117      .   S
    O16    C2        1.27043      .   S
    C10    O35       1.27333      .   S
    C2     O14       1.29044      .   S
    O23    C4        1.27351      .   S
    O26    C8        1.29085      .   S
    C8     O28       1.27026      .   S
    C4     O21       1.28095      .   S
    O19    C3        1.28045      .   S
    C3     O18       1.26690      .   S
    O12    C0        1.26655      .   S
    C0     O13       1.28092      .   S
    O15    C1        1.28113      .   S
    O34    C11       1.27038      .   S
