# CIF file generated by openbabel 2.4.90, see http://openbabel.sf.net
data_I
_chemical_name_common ''
_cell_length_a 10.804
_cell_length_b 10.809
_cell_length_c 18.389
_cell_angle_alpha 73.81
_cell_angle_beta 73.85
_cell_angle_gamma 77.841
_space_group_name_H-M_alt 'P 1'
_space_group_name_Hall 'P 1'
loop_
    _symmetry_equiv_pos_as_xyz
    x,y,z
loop_
    _atom_site_label
    _atom_site_type_symbol
    _atom_site_fract_x
    _atom_site_fract_y
    _atom_site_fract_z
    _atom_site_occupancy
    C0      C    0.31103   0.44498   0.80051   1.000
    C1      C    0.76144   0.45671   0.93978   1.000
    C2      C    0.75968   0.48283   0.46456   1.000
    C3      C    0.55335   0.69026   0.69934   1.000
    C4      C    0.54345   0.23895   0.56002   1.000
    C5      C    0.51746   0.24002   0.03559   1.000
    C6      C    0.68998   0.55366   0.19957   1.000
    C7      C    0.23916   0.54284   0.05994   1.000
    C8      C    0.24001   0.51746   0.53584   1.000
    C9      C    0.44503   0.31130   0.30066   1.000
    C10     C    0.45641   0.76130   0.43970   1.000
    C11     C    0.48364   0.75954   0.96464   1.000
