# CIF file generated by openbabel 2.4.90, see http://openbabel.sf.net
data_I
_chemical_name_common ''
_cell_length_a 20.243
_cell_length_b 22.896
_cell_length_c 13.99
_cell_angle_alpha 90.005
_cell_angle_beta 100.938
_cell_angle_gamma 89.996
_space_group_name_H-M_alt 'P 1'
_space_group_name_Hall 'P 1'
loop_
    _symmetry_equiv_pos_as_xyz
    x,y,z
loop_
    _atom_site_label
    _atom_site_type_symbol
    _atom_site_fract_x
    _atom_site_fract_y
    _atom_site_fract_z
    _atom_site_occupancy
    Zr0     Zr   0.18637   0.00000   0.60058   1.000
    Zr1     Zr   0.18637   0.50000   0.60058   1.000
    Zr2     Zr   0.68637   0.00000   0.60058   1.000
    Zr3     Zr   0.68637   0.50000   0.60058   1.000
    Zr4     Zr   0.31364   1.00000   0.39939   1.000
    Zr5     Zr   0.31363   0.50000   0.39939   1.000
    Zr6     Zr   0.81364   1.00000   0.39940   1.000
    Zr7     Zr   0.81364   0.50000   0.39938   1.000
    N8      N    0.00000   0.99999   0.99998   1.000
    O9      O    0.13284   1.00000   0.17814   1.000
    O10     O    0.86716   1.00000   0.82183   1.000
    N11     N    0.68965   0.75000   0.59548   1.000
    O12     O    0.68884   0.85144   0.59672   1.000
    O13     O    0.68883   0.64856   0.59672   1.000
    N14     N    0.18965   0.25000   0.59546   1.000
    O15     O    0.18883   0.14856   0.59671   1.000
    O16     O    0.18883   0.35144   0.59671   1.000
    N17     N    0.00001   0.50000   0.99998   1.000
    O18     O    0.13284   0.50000   0.17814   1.000
    O19     O    0.86717   0.50000   0.82182   1.000
    N20     N    0.31036   0.25000   0.40447   1.000
    O21     O    0.31117   0.14856   0.40325   1.000
    O22     O    0.31118   0.35144   0.40324   1.000
    N23     N    0.31036   0.75000   0.40444   1.000
    O24     O    0.31117   0.64856   0.40323   1.000
    O25     O    0.31118   0.85144   0.40323   1.000
    N26     N    0.50001   0.99999   0.99996   1.000
    O27     O    0.63285   0.99999   0.17813   1.000
    O28     O    0.36716   1.00000   0.82182   1.000
    N29     N    0.18965   0.75000   0.59548   1.000
    O30     O    0.18883   0.85144   0.59672   1.000
    O31     O    0.18883   0.64856   0.59672   1.000
    N32     N    0.81036   0.75000   0.40448   1.000
    O33     O    0.81118   0.85144   0.40325   1.000
    O34     O    0.81118   0.64856   0.40323   1.000
    N35     N    0.68965   0.25000   0.59547   1.000
    O36     O    0.68883   0.35144   0.59671   1.000
    O37     O    0.68883   0.14856   0.59671   1.000
    N38     N    0.81036   0.25000   0.40448   1.000
    O39     O    0.81118   0.35144   0.40325   1.000
    O40     O    0.81118   0.14856   0.40325   1.000
    N41     N    0.50000   0.50000   0.99995   1.000
    O42     O    0.63284   0.50000   0.17812   1.000
    O43     O    0.36716   0.50000   0.82181   1.000
    O44     O    0.92390   0.50000   0.20148   1.000
    O45     O    0.07611   0.50000   0.79847   1.000
    O46     O    0.58012   1.00000   0.80775   1.000
    O47     O    0.42390   1.00000   0.20143   1.000
    O48     O    0.41824   0.50000   0.21064   1.000
    O49     O    0.58012   0.50000   0.80775   1.000
    O50     O    0.91824   1.00000   0.21066   1.000
    O51     O    0.08176   1.00000   0.78931   1.000
loop_
    _geom_bond_atom_site_label_1
    _geom_bond_atom_site_label_2
    _geom_bond_distance
    _geom_bond_site_symmetry_2
    _ccdc_geom_bond_type
    N8     O9        3.30147  1_556   S
    Zr4    O9        4.32161      .   S
    N8     O10       3.30145  1_455   S
    Zr2    O10       4.32156  1_545   S
    N11    O12       2.32267      .   S
    Zr2    O12       3.40235  1_545   S
    N11    O13       2.32270      .   S
    Zr3    O13       3.40241      .   S
    N14    O15       2.32269      .   S
    Zr0    O15       3.40241      .   S
    N14    O16       2.32270      .   S
    Zr1    O16       3.40243      .   S
    N17    O18       3.30145  1_556   S
    Zr5    O18       4.32157      .   S
    N17    O19       3.30143  1_455   S
    Zr3    O19       4.32155      .   S
    N20    O21       2.32269      .   S
    Zr4    O21       3.40240  1_565   S
    N20    O22       2.32270      .   S
    Zr5    O22       3.40243      .   S
    N23    O24       2.32270      .   S
    Zr5    O24       3.40241      .   S
    N23    O25       2.32267      .   S
    Zr4    O25       3.40234      .   S
    N26    O27       3.30161  1_556   S
    Zr6    O27       4.32174      .   S
    N26    O28       3.30138      .   S
    Zr0    O28       4.32154  1_545   S
    N29    O30       2.32267      .   S
    Zr0    O30       3.40234  1_545   S
    N29    O31       2.32270      .   S
    Zr1    O31       3.40243      .   S
    N32    O33       2.32268      .   S
    Zr6    O33       3.40236      .   S
    N32    O34       2.32268      .   S
    Zr7    O34       3.40239      .   S
    N35    O36       2.32269      .   S
    Zr3    O36       3.40241      .   S
    N35    O37       2.32270      .   S
    Zr2    O37       3.40243      .   S
    N38    O39       2.32270      .   S
    Zr7    O39       3.40242      .   S
    N38    O40       2.32270      .   S
    Zr6    O40       3.40243  1_565   S
    N41    O42       3.30157  1_556   S
    Zr7    O42       4.32170      .   S
    N41    O43       3.30132      .   S
    Zr1    O43       4.32141      .   S
    N17    O44       3.45956  1_456   S
    Zr7    O44       3.87200      .   S
    N17    O45       3.45955      .   S
    Zr1    O45       3.87190      .   S
    N26    O46       3.39354      .   S
    Zr2    O46       3.92316  1_545   S
    N26    O47       3.45913  1_556   S
    Zr4    O47       3.87276      .   S
    N41    O48       3.64404  1_556   S
    Zr5    O48       3.68487      .   S
    N41    O49       3.39350      .   S
    Zr3    O49       3.92326      .   S
    N8     O50       3.64384  1_456   S
    Zr6    O50       3.68473      .   S
    N8     O51       3.64382      .   S
    Zr0    O51       3.68465  1_545   S
