# CIF file generated by openbabel 2.4.90, see http://openbabel.sf.net
data_I
_chemical_name_common 'VESTA_phase_1'
_cell_length_a 18.394
_cell_length_b 18.394
_cell_length_c 18.394
_cell_angle_alpha 60.411
_cell_angle_beta 60.407
_cell_angle_gamma 60.411
_space_group_name_H-M_alt 'P 1'
_space_group_name_Hall 'P 1'
loop_
    _symmetry_equiv_pos_as_xyz
    x,y,z
loop_
    _atom_site_label
    _atom_site_type_symbol
    _atom_site_fract_x
    _atom_site_fract_y
    _atom_site_fract_z
    _atom_site_occupancy
    Zn0     Zn   0.20602   0.20609   0.20607   1.000
    Zn1     Zn   0.79397   0.79393   0.79393   1.000
    Zn2     Zn   0.20697   0.38020   0.20693   1.000
    Zn3     Zn   0.20697   0.20694   0.38020   1.000
    Zn4     Zn   0.38020   0.20698   0.20697   1.000
    Zn5     Zn   0.61979   0.79304   0.79303   1.000
    Zn6     Zn   0.79302   0.79308   0.61980   1.000
    Zn7     Zn   0.79302   0.61982   0.79307   1.000
    H8      H    0.04839   0.33589   0.56793   1.000
    H9      H    0.56792   0.04839   0.33587   1.000
    H10     H    0.33586   0.56793   0.04839   1.000
    H11     H    0.66412   0.95164   0.43206   1.000
    H12     H    0.95159   0.43210   0.66413   1.000
    H13     H    0.43207   0.66413   0.95162   1.000
    H14     H    0.95161   0.66413   0.43207   1.000
    H15     H    0.43207   0.95163   0.66413   1.000
    H16     H    0.66413   0.43209   0.95161   1.000
    H17     H    0.33586   0.04838   0.56794   1.000
    H18     H    0.04840   0.56792   0.33587   1.000
    H19     H    0.56792   0.33589   0.04838   1.000
    H20     H    0.04909   0.56742   0.04908   1.000
    H21     H    0.04708   0.33593   0.04707   1.000
    H22     H    0.04909   0.04908   0.56742   1.000
    H23     H    0.04709   0.04709   0.33591   1.000
    H24     H    0.56741   0.04908   0.04908   1.000
    H25     H    0.33591   0.04709   0.04709   1.000
    H26     H    0.43258   0.95093   0.95093   1.000
    H27     H    0.66408   0.95293   0.95292   1.000
    H28     H    0.95090   0.95094   0.43258   1.000
    H29     H    0.95290   0.95293   0.66409   1.000
    H30     H    0.95090   0.43260   0.95092   1.000
    H31     H    0.95291   0.66409   0.95293   1.000
    C32     C    0.02680   0.40778   0.53896   1.000
    C33     C    0.53895   0.02681   0.40777   1.000
    C34     C    0.40776   0.53896   0.02680   1.000
    C35     C    0.59222   0.97321   0.46104   1.000
    C36     C    0.97317   0.46106   0.59223   1.000
    C37     C    0.46104   0.59224   0.97320   1.000
    C38     C    0.97318   0.59224   0.46100   1.000
    C39     C    0.46104   0.97320   0.59223   1.000
    C40     C    0.59223   0.46106   0.97319   1.000
    C41     C    0.40776   0.02680   0.53896   1.000
    C42     C    0.02681   0.53896   0.40777   1.000
    C43     C    0.53895   0.40778   0.02680   1.000
    C44     C    0.11098   0.38859   0.11096   1.000
    C45     C    0.05364   0.44609   0.05364   1.000
    C46     C    0.02720   0.53865   0.02720   1.000
    C47     C    0.02608   0.40781   0.02608   1.000
    C48     C    0.11098   0.11098   0.38858   1.000
    C49     C    0.05365   0.05364   0.44608   1.000
    C50     C    0.02720   0.02721   0.53864   1.000
    C51     C    0.02608   0.02609   0.40700   1.000
    C52     C    0.38856   0.11099   0.11099   1.000
    C53     C    0.44607   0.05366   0.05364   1.000
    C54     C    0.53863   0.02720   0.02720   1.000
    C55     C    0.40779   0.02608   0.02608   1.000
    C56     C    0.61143   0.88902   0.88902   1.000
    C57     C    0.55392   0.94637   0.94630   1.000
    C58     C    0.46136   0.97281   0.97281   1.000
    C59     C    0.59220   0.97393   0.97392   1.000
    C60     C    0.88900   0.88905   0.61142   1.000
    C61     C    0.94635   0.94637   0.55392   1.000
    C62     C    0.97279   0.97282   0.46136   1.000
    C63     C    0.97391   0.97393   0.59221   1.000
    C64     C    0.88901   0.61143   0.88904   1.000
    C65     C    0.94635   0.55393   0.94637   1.000
    C66     C    0.97279   0.46137   0.97280   1.000
    C67     C    0.97392   0.59221   0.97392   1.000
    C68     C    0.11159   0.38910   0.38910   1.000
    C69     C    0.05396   0.44640   0.44640   1.000
    C70     C    0.38910   0.11158   0.38911   1.000
    C71     C    0.44639   0.05396   0.44640   1.000
    C72     C    0.38910   0.38912   0.11157   1.000
    C73     C    0.44639   0.44641   0.05395   1.000
    C74     C    0.61089   0.88842   0.61089   1.000
    C75     C    0.55360   0.94609   0.55360   1.000
    C76     C    0.88837   0.61092   0.61090   1.000
    C77     C    0.94605   0.55361   0.55360   1.000
    C78     C    0.61089   0.61090   0.88841   1.000
    C79     C    0.55359   0.55361   0.94608   1.000
    O80     O    0.13386   0.42856   0.30543   1.000
    O81     O    0.30543   0.13379   0.42859   1.000
    O82     O    0.42857   0.30546   0.13388   1.000
    O83     O    0.57142   0.86612   0.69455   1.000
    O84     O    0.86615   0.69458   0.57144   1.000
    O85     O    0.69455   0.57144   0.86620   1.000
    O86     O    0.86613   0.57146   0.69457   1.000
    O87     O    0.69456   0.86624   0.57140   1.000
    O88     O    0.57142   0.69456   0.86613   1.000
    O89     O    0.42856   0.13391   0.30545   1.000
    O90     O    0.13384   0.30544   0.42856   1.000
    O91     O    0.30543   0.42858   0.13300   1.000
    O92     O    0.24991   0.24992   0.24992   1.000
    O93     O    0.75008   0.75010   0.75008   1.000
    O94     O    0.13266   0.30489   0.13273   1.000
    O95     O    0.13348   0.42807   0.13340   1.000
    O96     O    0.13266   0.13275   0.30488   1.000
    O97     O    0.13347   0.13342   0.42807   1.000
    O98     O    0.30486   0.13272   0.13271   1.000
    O99     O    0.42805   0.13347   0.13344   1.000
    O100    O    0.69513   0.86730   0.86728   1.000
    O101    O    0.57194   0.86655   0.86656   1.000
    O102    O    0.86733   0.86727   0.69512   1.000
    O103    O    0.86652   0.86660   0.57193   1.000
    O104    O    0.86732   0.69512   0.86727   1.000
    O105    O    0.86651   0.57194   0.86660   1.000
loop_
    _geom_bond_atom_site_label_1
    _geom_bond_atom_site_label_2
    _geom_bond_distance
    _geom_bond_site_symmetry_2
    _ccdc_geom_bond_type
    C47    H21       1.08863      .   S
    C47    C45       1.40317      .   S
    C47    C66       1.39047  1_454   S
    C55    H25       1.08862      .   S
    C55    C53       1.40329      .   S
    C55    C58       1.39007  1_544   S
    C43    H19       1.08857      .   S
    C43    C73       1.40313      .   S
    C43    C40       1.39019  1_554   S
    C34    H10       1.08858      .   S
    C34    C73       1.40313      .   S
    C34    C37       1.39019  1_554   S
    C54    H24       1.08861      .   S
    C54    C53       1.40345      .   S
    C54    C59       1.39019  1_544   S
    C46    H20       1.08863      .   S
    C46    C45       1.40345      .   S
    C46    C67       1.39046  1_454   S
    C45    C44       1.49609      .   S
    C53    C52       1.49623      .   S
    C73    C72       1.49507      .   S
    C44    O94       1.27750      .   S
    C44    O95       1.27693      .   S
    C52    O98       1.27750      .   S
    C52    O99       1.27700      .   S
    C72    O91       1.27705      .   S
    C72    O82       1.27705      .   S
    O98    Zn0       1.97473      .   S
    O94    Zn0       1.97448      .   S
    O91    Zn2       1.97125      .   S
    O95    Zn2       1.97129      .   S
    O99    Zn4       1.97155      .   S
    O82    Zn4       1.97114      .   S
    Zn0    O96       1.97434      .   S
    Zn2    O92       1.96665      .   S
    Zn2    O80       1.97140      .   S
    Zn4    O89       1.97126      .   S
    O92    Zn3       1.96666      .   S
    O96    C48       1.27755      .   S
    O80    C68       1.27713      .   S
    O89    C70       1.27698      .   S
    H18    C42       1.08858      .   S
    H9     C33       1.08858      .   S
    H23    C51       1.07608      .   S
    Zn3    O97       1.97123      .   S
    Zn3    O90       1.97135      .   S
    Zn3    O81       1.97125      .   S
    C48    O97       1.27699      .   S
    C48    C49       1.49604      .   S
    C68    O90       1.27702      .   S
    C68    C69       1.49525      .   S
    C70    O81       1.27708      .   S
    C70    C71       1.49513      .   S
    C51    C49       1.41569      .   S
    C51    C62       1.39063  1_445   S
    C33    C71       1.40313      .   S
    C33    C35       1.39018  1_545   S
    C42    C69       1.40314      .   S
    C42    C38       1.38965  1_455   S
    H11    C35       1.08859      .   S
    H14    C38       1.08852      .   S
    H28    C62       1.08860      .   S
    C49    C50       1.40348      .   S
    C69    C32       1.40317      .   S
    C71    C41       1.40317      .   S
    C38    C77       1.40375      .   S
    C35    C75       1.40317      .   S
    C62    C61       1.40349      .   S
    C50    H22       1.08863      .   S
    C50    C63       1.39036  1_445   S
    C41    H17       1.08859      .   S
    C41    C39       1.39018  1_545   S
    C32    H8        1.08856      .   S
    C32    C36       1.39018  1_455   S
    C75    C39       1.40314      .   S
    C75    C74       1.49513      .   S
    C77    C36       1.40312      .   S
    C77    C76       1.49526      .   S
    C61    C63       1.40320      .   S
    C61    C60       1.49604      .   S
    O87    C74       1.27710      .   S
    O87    Zn6       1.97135      .   S
    O84    C76       1.27703      .   S
    O84    Zn6       1.97133      .   S
    O103   C60       1.27700      .   S
    O103   Zn6       1.97123      .   S
    C63    H29       1.08861      .   S
    C39    H15       1.08858      .   S
    C36    H12       1.08858      .   S
    C74    O83       1.27697      .   S
    C76    O86       1.27712      .   S
    C60    O102      1.27754      .   S
    Zn6    O93       1.96666      .   S
    O83    Zn5       1.97126      .   S
    O86    Zn7       1.97141      .   S
    O102   Zn1       1.97433      .   S
    O93    Zn7       1.96665      .   S
    Zn5    O88       1.97114      .   S
    Zn5    O101      1.97162      .   S
    Zn7    O85       1.97111      .   S
    Zn7    O105      1.97129      .   S
    Zn1    O104      1.97445      .   S
    Zn1    O100      1.97467      .   S
    O88    C78       1.27705      .   S
    O85    C78       1.27704      .   S
    O101   C56       1.27691      .   S
    O105   C64       1.27700      .   S
    O104   C64       1.27749      .   S
    O100   C56       1.27748      .   S
    C78    C79       1.49507      .   S
    C56    C57       1.49560      .   S
    C64    C65       1.49613      .   S
    C79    C40       1.40314      .   S
    C79    C37       1.40313      .   S
    C57    C58       1.40336      .   S
    C57    C59       1.40391      .   S
    C65    C66       1.40345      .   S
    C65    C67       1.40311      .   S
    H30    C66       1.08866      .   S
    H26    C58       1.08857      .   S
    H16    C40       1.08858      .   S
    H13    C37       1.08857      .   S
    H27    C59       1.08863      .   S
    H31    C67       1.08863      .   S
    O92    Zn0       1.96995      .   S
    O92    Zn4       1.96671      .   S
    O93    Zn1       1.96995      .   S
    O93    Zn5       1.96671      .   S
