# CIF file generated by openbabel 2.4.90, see http://openbabel.sf.net
data_I
_chemical_name_common ''
_cell_length_a 13.928
_cell_length_b 19.233
_cell_length_c 17.934
_cell_angle_alpha 102.2
_cell_angle_beta 96.875
_cell_angle_gamma 105.929
_space_group_name_H-M_alt 'P 1'
_space_group_name_Hall 'P 1'
loop_
    _symmetry_equiv_pos_as_xyz
    x,y,z
loop_
    _atom_site_label
    _atom_site_type_symbol
    _atom_site_fract_x
    _atom_site_fract_y
    _atom_site_fract_z
    _atom_site_occupancy
    Zn0     Zn   0.03693   0.77154   0.24991   1.000
    Zn1     Zn   0.53692   0.27154   0.24991   1.000
    Zn2     Zn   0.53692   0.77154   0.24991   1.000
    Zn3     Zn   0.08873   0.10140   0.25017   1.000
    Zn4     Zn   0.08873   0.60140   0.25017   1.000
    Zn5     Zn   0.58871   0.10140   0.25017   1.000
    Zn6     Zn   0.58871   0.60140   0.25017   1.000
    Zn7     Zn   0.46304   0.22846   0.75000   1.000
    Zn8     Zn   0.46305   0.72846   0.75000   1.000
    Zn9     Zn   0.96303   0.22846   0.75000   1.000
    Zn10    Zn   0.96303   0.72847   0.75000   1.000
    Zn11    Zn   0.41125   0.39860   0.74900   1.000
    Zn12    Zn   0.41126   0.89860   0.74980   1.000
    Zn13    Zn   0.91123   0.39860   0.74900   1.000
    Zn14    Zn   0.91124   0.89860   0.74900   1.000
    Zn15    Zn   0.03693   0.27154   0.24991   1.000
    C16     C    0.03014   0.15392   0.11867   1.000
    C17     C    0.03014   0.65392   0.11867   1.000
    C18     C    0.53012   0.15392   0.11867   1.000
    C19     C    0.53012   0.65392   0.11867   1.000
    C20     C    0.09591   0.21916   0.38276   1.000
    C21     C    0.09591   0.71916   0.38276   1.000
    C22     C    0.59588   0.21916   0.38276   1.000
    C23     C    0.59588   0.71916   0.38276   1.000
    C24     C    0.46984   0.34608   0.88129   1.000
    C25     C    0.46985   0.84608   0.88129   1.000
    C26     C    0.96982   0.34608   0.88129   1.000
    C27     C    0.96983   0.84609   0.88129   1.000
    C28     C    0.40408   0.28084   0.61721   1.000
    C29     C    0.40408   0.78085   0.61721   1.000
    C30     C    0.90406   0.28084   0.61721   1.000
    C31     C    0.90406   0.78085   0.61721   1.000
    O32     O    0.00551   0.10152   0.15310   1.000
    O33     O    0.00551   0.60152   0.15310   1.000
    O34     O    0.50549   0.10152   0.15312   1.000
    O35     O    0.50549   0.60152   0.15312   1.000
    O36     O    0.07202   0.22326   0.15303   1.000
    O37     O    0.07202   0.72327   0.15300   1.000
    O38     O    0.57200   0.22326   0.15303   1.000
    O39     O    0.57200   0.72327   0.15303   1.000
    O40     O    0.11749   0.27121   0.34768   1.000
    O41     O    0.11749   0.77121   0.34768   1.000
    O42     O    0.61747   0.27121   0.34768   1.000
    O43     O    0.61747   0.77121   0.34768   1.000
    O44     O    0.05763   0.14949   0.34888   1.000
    O45     O    0.05763   0.64950   0.34888   1.000
    O46     O    0.55761   0.14949   0.34888   1.000
    O47     O    0.55761   0.64950   0.34888   1.000
    O48     O    0.49447   0.39848   0.84684   1.000
    O49     O    0.49448   0.89849   0.84684   1.000
    O50     O    0.99445   0.39849   0.84684   1.000
    O51     O    0.99445   0.89849   0.84684   1.000
    O52     O    0.42796   0.27674   0.84694   1.000
    O53     O    0.42796   0.77674   0.84694   1.000
    O54     O    0.92794   0.27674   0.84694   1.000
    O55     O    0.92795   0.77674   0.84694   1.000
    O56     O    0.38249   0.22879   0.65229   1.000
    O57     O    0.38250   0.72879   0.65229   1.000
    O58     O    0.88248   0.22879   0.65229   1.000
    O59     O    0.88248   0.72879   0.65229   1.000
    O60     O    0.44235   0.35051   0.65108   1.000
    O61     O    0.44236   0.85051   0.65108   1.000
    O62     O    0.94233   0.35051   0.65108   1.000
    O63     O    0.94234   0.85051   0.65108   1.000
    Ts64    Ts   0.04403   0.80812   0.25388   1.000
    Ts65    Ts   0.98687   0.75344   0.24565   1.000
    Ts66    Ts   0.54401   0.30812   0.25388   1.000
    Ts67    Ts   0.48687   0.25344   0.24565   1.000
    Ts68    Ts   0.54401   0.80812   0.25388   1.000
    Ts69    Ts   0.48687   0.75345   0.24565   1.000
    Ts70    Ts   0.13676   0.11747   0.24595   1.000
    Ts71    Ts   0.08420   0.06680   0.25408   1.000
    Ts72    Ts   0.13676   0.61747   0.24595   1.000
    Ts73    Ts   0.08420   0.56680   0.25408   1.000
    Ts74    Ts   0.63674   0.11747   0.24595   1.000
    Ts75    Ts   0.58418   0.06680   0.25408   1.000
    Ts76    Ts   0.63674   0.61747   0.24595   1.000
    Ts77    Ts   0.58417   0.56680   0.25408   1.000
    Ts78    Ts   0.45595   0.19188   0.74605   1.000
    Ts79    Ts   0.51310   0.24656   0.75428   1.000
    Ts80    Ts   0.45596   0.69188   0.74605   1.000
    Ts81    Ts   0.51310   0.74656   0.75428   1.000
    Ts82    Ts   0.95594   0.19188   0.74603   1.000
    Ts83    Ts   0.01309   0.24656   0.75428   1.000
    Ts84    Ts   0.95594   0.69189   0.74605   1.000
    Ts85    Ts   0.01310   0.74656   0.75428   1.000
    Ts86    Ts   0.36323   0.38253   0.75348   1.000
    Ts87    Ts   0.41579   0.43320   0.74535   1.000
    Ts88    Ts   0.36323   0.88253   0.75401   1.000
    Ts89    Ts   0.41579   0.93320   0.74588   1.000
    Ts90    Ts   0.86320   0.38253   0.75348   1.000
    Ts91    Ts   0.91577   0.43320   0.74535   1.000
    Ts92    Ts   0.86321   0.88253   0.75348   1.000
    Ts93    Ts   0.91577   0.93320   0.74535   1.000
    Ts94    Ts   0.04402   0.30812   0.25388   1.000
    Ts95    Ts   0.98687   0.25344   0.24565   1.000
    Og96    Og   0.02287   0.14684   0.08985   1.000
    Og97    Og   0.02287   0.64684   0.08985   1.000
    Og98    Og   0.52285   0.14684   0.08985   1.000
    Og99    Og   0.52285   0.64685   0.08985   1.000
    Og100   Og   0.10296   0.22655   0.41157   1.000
    Og101   Og   0.10297   0.72655   0.41151   1.000
    Og102   Og   0.60294   0.22655   0.41151   1.000
    Og103   Og   0.60294   0.72655   0.41151   1.000
    Og104   Og   0.47711   0.35316   0.91011   1.000
    Og105   Og   0.47712   0.85316   0.91011   1.000
    Og106   Og   0.97709   0.35316   0.91011   1.000
    Og107   Og   0.97710   0.85316   0.91011   1.000
    Og108   Og   0.39702   0.27345   0.58840   1.000
    Og109   Og   0.39702   0.77346   0.58840   1.000
    Og110   Og   0.89700   0.27346   0.58840   1.000
    Og111   Og   0.89700   0.77346   0.58840   1.000
loop_
    _geom_bond_atom_site_label_1
    _geom_bond_atom_site_label_2
    _geom_bond_distance
    _geom_bond_site_symmetry_2
    _ccdc_geom_bond_type
    C18    O38       1.27998      .   S
    C18    O34       1.28036      .   S
    C19    O39       1.27998      .   S
    C19    O35       1.28035      .   S
    C17    O37       1.27988      .   S
    C17    O33       1.28009      .   S
    C16    O36       1.27998      .   S
    C16    O32       1.28010      .   S
    O37    Zn0       1.97274      .   S
    O36    Zn15      1.97231      .   S
    O39    Zn2       1.97231      .   S
    O38    Zn1       1.97232      .   S
    O32    Zn3       1.97331      .   S
    O33    Zn4       1.97332      .   S
    O35    Zn6       1.97300      .   S
    O34    Zn5       1.97300      .   S
    Zn0    O41       1.96744      .   S
    Zn1    O42       1.96743      .   S
    Zn15   O40       1.96744      .   S
    Zn2    O43       1.96743      .   S
    Zn4    O45       1.97193      .   S
    Zn5    O46       1.97194      .   S
    Zn6    O47       1.97192      .   S
    Zn3    O44       1.97193      .   S
    O43    C23       1.27857      .   S
    O42    C22       1.27858      .   S
    O41    C21       1.27856      .   S
    O40    C20       1.27858      .   S
    O47    C23       1.27863      .   S
    O44    C20       1.27863      .   S
    O45    C21       1.27863      .   S
    O46    C22       1.27861      .   S
    C28    O60       1.27859      .   S
    C28    O56       1.27858      .   S
    C29    O61       1.27858      .   S
    C29    O57       1.27858      .   S
    C30    O62       1.27859      .   S
    C30    O58       1.27857      .   S
    C31    O63       1.27859      .   S
    C31    O59       1.27857      .   S
    O63    Zn14      1.96025      .   S
    O60    Zn11      1.96027      .   S
    O61    Zn12      1.97208      .   S
    O62    Zn13      1.96027      .   S
    O56    Zn7       1.96654      .   S
    O57    Zn8       1.96652      .   S
    O58    Zn9       1.96654      .   S
    O59    Zn10      1.96654      .   S
    Zn11   O48       1.98453      .   S
    Zn13   O50       1.98454      .   S
    Zn14   O51       1.98454      .   S
    Zn12   O49       1.97287      .   S
    Zn7    O52       1.97321      .   S
    Zn10   O55       1.97318      .   S
    Zn9    O54       1.97319      .   S
    Zn8    O53       1.97319      .   S
    O48    C24       1.28036      .   S
    O49    C25       1.28034      .   S
    O50    C26       1.28036      .   S
    O51    C27       1.28035      .   S
    O55    C27       1.27994      .   S
    O53    C25       1.27994      .   S
    O54    C26       1.27994      .   S
    O52    C24       1.27994      .   S
    Zn0    Ts64      0.66992      .   S
    Zn0    Ts65      0.67530  1_455   S
    Zn1    Ts66      0.66992      .   S
    Zn1    Ts67      0.67517      .   S
    Zn2    Ts68      0.66992      .   S
    Zn2    Ts69      0.67516      .   S
    Zn3    Ts70      0.67614      .   S
    Zn3    Ts71      0.67042      .   S
    Zn4    Ts72      0.67614      .   S
    Zn4    Ts73      0.67046      .   S
    Zn5    Ts74      0.67614      .   S
    Zn5    Ts75      0.67042      .   S
    Zn6    Ts76      0.67614      .   S
    Zn6    Ts77      0.67046      .   S
    Zn7    Ts78      0.66996      .   S
    Zn7    Ts79      0.67512      .   S
    Zn8    Ts80      0.66996      .   S
    Zn8    Ts81      0.67512      .   S
    Zn9    Ts82      0.66993      .   S
    Zn9    Ts83      0.67525  1_655   S
    Zn10   Ts84      0.66996      .   S
    Zn10   Ts85      0.67525  1_655   S
    Zn11   Ts86      0.67770      .   S
    Zn11   Ts87      0.66894      .   S
    Zn12   Ts88      0.67612      .   S
    Zn12   Ts89      0.67045      .   S
    Zn13   Ts90      0.67769      .   S
    Zn13   Ts91      0.66894      .   S
    Zn14   Ts92      0.67770      .   S
    Zn14   Ts93      0.66892      .   S
    Zn15   Ts94      0.66992      .   S
    Zn15   Ts95      0.67529  1_455   S
    C16    Og96      0.49602      .   S
    C17    Og97      0.49602      .   S
    C18    Og98      0.49602      .   S
    C19    Og99      0.49602      .   S
    C20    Og100     0.49594      .   S
    C21    Og101     0.49485      .   S
    C22    Og102     0.49485      .   S
    C23    Og103     0.49485      .   S
    C24    Og104     0.49608      .   S
    C25    Og105     0.49608      .   S
    C26    Og106     0.49608      .   S
    C27    Og107     0.49608      .   S
    C28    Og108     0.49600      .   S
    C29    Og109     0.49600      .   S
    C30    Og110     0.49600      .   S
    C31    Og111     0.49600      .   S
