# CIF file generated by openbabel 2.4.90, see http://openbabel.sf.net
data_I
_chemical_name_common ''
_cell_length_a 13.928
_cell_length_b 19.233
_cell_length_c 17.934
_cell_angle_alpha 102.2
_cell_angle_beta 96.875
_cell_angle_gamma 105.929
_space_group_name_H-M_alt 'P 1'
_space_group_name_Hall 'P 1'
loop_
    _symmetry_equiv_pos_as_xyz
    x,y,z
loop_
    _atom_site_label
    _atom_site_type_symbol
    _atom_site_fract_x
    _atom_site_fract_y
    _atom_site_fract_z
    _atom_site_occupancy
    C0      C    0.03014   0.15392   0.11867   1.000
    C1      C    0.03014   0.65392   0.11867   1.000
    C2      C    0.53012   0.15392   0.11867   1.000
    C3      C    0.53012   0.65392   0.11867   1.000
    C4      C    0.09591   0.21916   0.38276   1.000
    C5      C    0.09591   0.71916   0.38276   1.000
    C6      C    0.59588   0.21916   0.38276   1.000
    C7      C    0.59588   0.71916   0.38276   1.000
    C8      C    0.46984   0.34608   0.88129   1.000
    C9      C    0.46985   0.84608   0.88129   1.000
    C10     C    0.96982   0.34608   0.88129   1.000
    C11     C    0.96983   0.84609   0.88129   1.000
    C12     C    0.40408   0.28084   0.61721   1.000
    C13     C    0.40408   0.78085   0.61721   1.000
    C14     C    0.90406   0.28084   0.61721   1.000
    C15     C    0.90406   0.78085   0.61721   1.000
