# CIF file generated by openbabel 2.4.90, see http://openbabel.sf.net
data_I
_chemical_name_common ''
_cell_length_a 13.928
_cell_length_b 19.233
_cell_length_c 17.934
_cell_angle_alpha 102.2
_cell_angle_beta 96.875
_cell_angle_gamma 105.929
_space_group_name_H-M_alt 'P 1'
_space_group_name_Hall 'P 1'
loop_
    _symmetry_equiv_pos_as_xyz
    x,y,z
loop_
    _atom_site_label
    _atom_site_type_symbol
    _atom_site_fract_x
    _atom_site_fract_y
    _atom_site_fract_z
    _atom_site_occupancy
    N0      N    0.03220   0.90566   0.12671   1.000
    N1      N    0.65660   0.78205   0.62788   1.000
    N2      N    0.34337   0.21795   0.37206   1.000
    N3      N    0.53219   0.40627   0.12671   1.000
    N4      N    0.84335   0.21795   0.37206   1.000
    N5      N    0.46777   0.09373   0.87320   1.000
    N6      N    0.96777   0.59373   0.87320   1.000
    N7      N    0.15661   0.28205   0.62790   1.000
    N8      N    0.65659   0.28205   0.62789   1.000
    N9      N    0.03220   0.40627   0.12677   1.000
    N10     N    0.15662   0.78205   0.62789   1.000
    N11     N    0.46777   0.59373   0.87320   1.000
    N12     N    0.53220   0.90566   0.12677   1.000
    N13     N    0.34337   0.71795   0.37206   1.000
    N14     N    0.84335   0.71795   0.37206   1.000
    N15     N    0.96776   0.09373   0.87319   1.000
    Zr16    Zr   0.93692   0.31356   0.74933   1.000
    O17     O    0.93991   0.41784   0.77885   1.000
    O18     O    0.84240   0.32092   0.72057   1.000
    O19     O    0.90266   0.27871   0.61118   1.000
    O20     O    0.97169   0.34752   0.88749   1.000
    O21     O    0.01714   0.29120   0.72074   1.000
    O22     O    0.94850   0.22361   0.77897   1.000
    Zr23    Zr   0.93692   0.81357   0.74933   1.000
    O24     O    0.94850   0.72361   0.77898   1.000
    O25     O    0.01715   0.79120   0.72074   1.000
    O26     O    0.90267   0.77871   0.61118   1.000
    O27     O    0.93991   0.91784   0.77884   1.000
    O28     O    0.84241   0.82092   0.72057   1.000
    O29     O    0.97170   0.84737   0.88747   1.000
    Zr30    Zr   0.56303   0.68644   0.25053   1.000
    O31     O    0.59728   0.72129   0.38870   1.000
    O32     O    0.52826   0.65248   0.11242   1.000
    O33     O    0.55145   0.77624   0.22092   1.000
    O34     O    0.48282   0.70881   0.27916   1.000
    O35     O    0.56004   0.58216   0.22095   1.000
    O36     O    0.65754   0.67908   0.27924   1.000
    Zr37    Zr   0.56303   0.18644   0.25053   1.000
    O38     O    0.65754   0.17908   0.27924   1.000
    O39     O    0.56004   0.08201   0.22096   1.000
    O40     O    0.55145   0.27639   0.22091   1.000
    O41     O    0.48281   0.20880   0.27916   1.000
    O42     O    0.52826   0.15248   0.11242   1.000
    O43     O    0.59728   0.22129   0.38871   1.000
    Zr44    Zr   0.43694   0.31356   0.74933   1.000
    O45     O    0.44851   0.22361   0.77898   1.000
    O46     O    0.51715   0.29119   0.72074   1.000
    O47     O    0.34242   0.32092   0.72057   1.000
    O48     O    0.43992   0.41784   0.77885   1.000
    O49     O    0.40268   0.27871   0.61118   1.000
    O50     O    0.47170   0.34752   0.88747   1.000
    Zr51    Zr   0.43694   0.81357   0.74943   1.000
    O52     O    0.43993   0.91784   0.77900   1.000
    O53     O    0.34243   0.82092   0.72072   1.000
    O54     O    0.40269   0.77871   0.61123   1.000
    O55     O    0.47171   0.84737   0.88754   1.000
    O56     O    0.44852   0.72361   0.77903   1.000
    O57     O    0.51715   0.79120   0.72079   1.000
    Zr58    Zr   0.06305   0.18644   0.25052   1.000
    O59     O    0.09730   0.22129   0.38873   1.000
    O60     O    0.02827   0.15248   0.11242   1.000
    O61     O    0.98282   0.20881   0.27916   1.000
    O62     O    0.05146   0.27639   0.22092   1.000
    O63     O    0.06006   0.08201   0.22095   1.000
    O64     O    0.15756   0.17908   0.27924   1.000
    Zr65    Zr   0.06304   0.68644   0.25052   1.000
    O66     O    0.98282   0.70881   0.27916   1.000
    O67     O    0.05147   0.77624   0.22091   1.000
    O68     O    0.09730   0.72129   0.38870   1.000
    O69     O    0.02827   0.65248   0.11242   1.000
    O70     O    0.06005   0.58216   0.22096   1.000
    O71     O    0.15756   0.67908   0.27924   1.000
loop_
    _geom_bond_atom_site_label_1
    _geom_bond_atom_site_label_2
    _geom_bond_distance
    _geom_bond_site_symmetry_2
    _ccdc_geom_bond_type
    Zr16   O17       1.95046      .   S
    N6     O17       3.34076      .   S
    Zr16   O18       1.41047      .   S
    N8     O18       2.72071      .   S
    Zr16   O19       2.37805      .   S
    N4     O19       4.11604      .   S
    Zr16   O20       2.37807      .   S
    N9     O20       4.11872  1_454   S
    Zr16   O21       1.41572  1_655   S
    N7     O21       2.72303      .   S
    Zr16   O22       1.95526      .   S
    N15    O22       3.34819      .   S
    Zr23   O24       1.95532      .   S
    N6     O24       3.34822      .   S
    Zr23   O25       1.41574  1_655   S
    N10    O25       2.72316      .   S
    Zr23   O26       2.37806      .   S
    N14    O26       4.11607      .   S
    Zr23   O27       1.95042      .   S
    N15    O27       3.34068  1_545   S
    Zr23   O28       1.41047      .   S
    N1     O28       2.72074      .   S
    Zr23   O29       2.37785      .   S
    N0     O29       4.11807  1_454   S
    Zr30   O31       2.37847      .   S
    N1     O31       4.11710      .   S
    Zr30   O32       2.37717      .   S
    N11    O32       4.11784  1_556   S
    Zr30   O33       1.95208      .   S
    N12    O33       3.33972      .   S
    Zr30   O34       1.41584      .   S
    N13    O34       2.72345      .   S
    Zr30   O35       1.95052      .   S
    N3     O35       3.34024      .   S
    Zr30   O36       1.41020      .   S
    N14    O36       2.72181      .   S
    Zr37   O38       1.41020      .   S
    N4     O38       2.72180      .   S
    Zr37   O39       1.95335      .   S
    N12    O39       3.34777  1_565   S
    Zr37   O40       1.95506      .   S
    N3     O40       3.34796      .   S
    Zr37   O41       1.41585      .   S
    N2     O41       2.72347      .   S
    Zr37   O42       2.37717      .   S
    N5     O42       4.11784  1_556   S
    Zr37   O43       2.37849      .   S
    N8     O43       4.11716      .   S
    Zr44   O45       1.95531      .   S
    N5     O45       3.34818      .   S
    Zr44   O46       1.41555      .   S
    N8     O46       2.72288      .   S
    Zr44   O47       1.41044      .   S
    N7     O47       2.72061      .   S
    Zr44   O48       1.95047      .   S
    N11    O48       3.34079      .   S
    Zr44   O49       2.37805      .   S
    N2     O49       4.11604      .   S
    Zr44   O50       2.37784      .   S
    N3     O50       4.11804  1_554   S
    Zr51   O52       1.95049      .   S
    N5     O52       3.34000  1_545   S
    Zr51   O53       1.41021      .   S
    N10    O53       2.72189      .   S
    Zr51   O54       2.37891      .   S
    N13    O54       4.11690      .   S
    Zr51   O55       2.37721      .   S
    N12    O55       4.11788  1_554   S
    Zr51   O56       1.95491      .   S
    N11    O56       3.34760      .   S
    Zr51   O57       1.41590      .   S
    N1     O57       2.72353      .   S
    Zr58   O59       2.37898      .   S
    N7     O59       4.11695      .   S
    Zr58   O60       2.37719      .   S
    N15    O60       4.11795  1_656   S
    Zr58   O61       1.41605  1_455   S
    N4     O61       2.72376      .   S
    Zr58   O62       1.95495      .   S
    N9     O62       3.34751      .   S
    Zr58   O63       1.95335      .   S
    N0     O63       3.34793  1_565   S
    Zr58   O64       1.41022      .   S
    N2     O64       2.72183      .   S
    Zr65   O66       1.41606  1_455   S
    N14    O66       2.72375      .   S
    Zr65   O67       1.95218      .   S
    N0     O67       3.34017      .   S
    Zr65   O68       2.37854      .   S
    N10    O68       4.11721      .   S
    Zr65   O69       2.37712      .   S
    N6     O69       4.11779  1_656   S
    Zr65   O70       1.95050      .   S
    N9     O70       3.33999      .   S
    Zr65   O71       1.41023      .   S
    N13    O71       2.72186      .   S
