# CIF file generated by openbabel 2.4.90, see http://openbabel.sf.net
data_I
_chemical_name_common ''
_cell_length_a 10.9375
_cell_length_b 13.463
_cell_length_c 15.13
_cell_angle_alpha 90.056
_cell_angle_beta 105.416
_cell_angle_gamma 90.013
_space_group_name_H-M_alt 'P 1'
_space_group_name_Hall 'P 1'
loop_
    _symmetry_equiv_pos_as_xyz
    x,y,z
loop_
    _atom_site_label
    _atom_site_type_symbol
    _atom_site_fract_x
    _atom_site_fract_y
    _atom_site_fract_z
    _atom_site_occupancy
    Zn0     Zn   0.25058   0.82537   0.50002   1.000
    H1      H    0.47881   0.16092   0.34735   1.000
    H2      H    0.76232   0.94173   0.42257   1.000
    H3      H    0.56598   0.86657   0.28243   1.000
    H4      H    0.36607   0.15515   0.18159   1.000
    H5      H    0.15947   0.13703   0.06273   1.000
    H6      H    0.14337   0.82927   0.13524   1.000
    H7      H    0.34518   0.84810   0.25744   1.000
    H8      H    0.02186   0.29852   0.35500   1.000
    H9      H    0.10014   0.37528   0.22957   1.000
    H10     H    0.72071   0.47223   0.09832   1.000
    H11     H    0.64605   0.39608   0.22467   1.000
    H12     H    0.92802   0.63538   0.17687   1.000
    H13     H    0.91483   0.72019   0.08428   1.000
    H14     H    0.78687   0.63991   0.08705   1.000
    H15     H    0.02017   0.32372   0.04532   1.000
    H16     H    0.02208   0.16105   0.65209   1.000
    H17     H    0.73877   0.94235   0.57734   1.000
    H18     H    0.93403   0.86718   0.71807   1.000
    H19     H    0.13475   0.15587   0.81767   1.000
    H20     H    0.34143   0.13765   0.93642   1.000
    H21     H    0.35593   0.82950   0.86417   1.000
    H22     H    0.15401   0.84840   0.74209   1.000
    H23     H    0.47886   0.29814   0.64435   1.000
    H24     H    0.40016   0.37491   0.76974   1.000
    H25     H    0.77988   0.47252   0.90176   1.000
    H26     H    0.85555   0.39659   0.77569   1.000
    H27     H    0.57155   0.63491   0.82291   1.000
    H28     H    0.58473   0.71975   0.91563   1.000
    H29     H    0.71284   0.63979   0.91259   1.000
    H30     H    0.47944   0.32327   0.95377   1.000
    H31     H    0.52289   0.83904   0.65241   1.000
    Zn32    Zn   0.75175   0.17410   0.49994   1.000
    H33     H    0.23815   0.05728   0.57722   1.000
    H34     H    0.43376   0.13270   0.71783   1.000
    H35     H    0.63478   0.84451   0.81814   1.000
    H36     H    0.84136   0.86283   0.93709   1.000
    H37     H    0.85647   0.17085   0.86510   1.000
    H38     H    0.65470   0.15185   0.74281   1.000
    H39     H    0.97639   0.70103   0.64477   1.000
    H40     H    0.89875   0.62407   0.77047   1.000
    H41     H    0.27967   0.52711   0.90181   1.000
    H42     H    0.35495   0.60305   0.77574   1.000
    H43     H    0.07054   0.36453   0.82289   1.000
    H44     H    0.08409   0.27979   0.91556   1.000
    H45     H    0.21209   0.35983   0.91234   1.000
    H46     H    0.97865   0.67629   0.95431   1.000
    H47     H    0.97608   0.83976   0.34747   1.000
    H48     H    0.26319   0.05709   0.42250   1.000
    H49     H    0.06714   0.13239   0.28236   1.000
    H50     H    0.86430   0.84478   0.18177   1.000
    H51     H    0.65798   0.86295   0.06263   1.000
    H52     H    0.64367   0.17133   0.13416   1.000
    H53     H    0.84525   0.15253   0.25656   1.000
    H54     H    0.52271   0.70104   0.35493   1.000
    H55     H    0.60081   0.62411   0.22937   1.000
    H56     H    0.22085   0.52640   0.09817   1.000
    H57     H    0.14575   0.60258   0.22434   1.000
    H58     H    0.42866   0.36399   0.17628   1.000
    H59     H    0.41562   0.27920   0.08352   1.000
    H60     H    0.28747   0.35915   0.08649   1.000
    H61     H    0.52104   0.67568   0.04552   1.000
    C62     C    0.52895   0.09114   0.35024   1.000
    C63     C    0.67284   0.97542   0.38703   1.000
    C64     C    0.57719   0.93709   0.31798   1.000
    C65     C    0.36782   0.00246   0.22642   1.000
    C66     C    0.31555   0.08456   0.17238   1.000
    C67     C    0.20121   0.07451   0.10579   1.000
    C68     C    0.13859   0.98198   0.09158   1.000
    C69     C    0.19225   0.90058   0.14618   1.000
    C70     C    0.30583   0.91067   0.21373   1.000
    C71     C    0.77806   0.28832   0.36618   1.000
    C72     C    0.82938   0.34096   0.29621   1.000
    C73     C    0.95812   0.33652   0.29793   1.000
    C74     C    0.99973   0.37873   0.22756   1.000
    C75     C    0.91597   0.42821   0.15449   1.000
    C76     C    0.78794   0.43524   0.15478   1.000
    C77     C    0.74541   0.39207   0.22462   1.000
    C78     C    0.95907   0.46792   0.07641   1.000
    C79     C    0.94451   0.56875   0.05000   1.000
    C80     C    0.89080   0.64501   0.10241   1.000
    C81     C    0.01351   0.40205   0.02585   1.000
    C82     C    0.97328   0.09095   0.64970   1.000
    C83     C    0.82847   0.97578   0.61295   1.000
    C84     C    0.92355   0.93747   0.68230   1.000
    C85     C    0.13219   0.00292   0.77309   1.000
    C86     C    0.18491   0.08516   0.82696   1.000
    C87     C    0.29927   0.07506   0.89346   1.000
    C88     C    0.36139   0.98238   0.90773   1.000
    C89     C    0.30736   0.90090   0.85322   1.000
    C90     C    0.19374   0.91102   0.78576   1.000
    C91     C    0.72468   0.28824   0.63393   1.000
    C92     C    0.67272   0.34068   0.70378   1.000
    C93     C    0.54390   0.33575   0.70178   1.000
    C94     C    0.50063   0.37835   0.77191   1.000
    C95     C    0.58494   0.42771   0.84524   1.000
    C96     C    0.71303   0.43521   0.84521   1.000
    C97     C    0.75614   0.39217   0.77552   1.000
    C98     C    0.54134   0.46735   0.92322   1.000
    C99     C    0.55555   0.56822   0.94977   1.000
    C100    C    0.60891   0.64463   0.89738   1.000
    C101    C    0.48637   0.40156   0.97354   1.000
    C102    C    0.47232   0.90861   0.64958   1.000
    C103    C    0.32778   0.02386   0.61283   1.000
    C104    C    0.42304   0.06231   0.68208   1.000
    C105    C    0.63265   0.99736   0.77363   1.000
    C106    C    0.68509   0.91520   0.82751   1.000
    C107    C    0.79937   0.92535   0.89412   1.000
    C108    C    0.86161   0.01802   0.90845   1.000
    C109    C    0.80779   0.09946   0.85401   1.000
    C110    C    0.69426   0.08927   0.78645   1.000
    C111    C    0.22382   0.71142   0.63419   1.000
    C112    C    0.17208   0.65900   0.70414   1.000
    C113    C    0.04335   0.66388   0.70241   1.000
    C114    C    0.99914   0.62102   0.77238   1.000
    C115    C    0.08469   0.57191   0.84574   1.000
    C116    C    0.21269   0.56443   0.84544   1.000
    C117    C    0.25560   0.60750   0.77571   1.000
    C118    C    0.04120   0.53224   0.92373   1.000
    C119    C    0.05503   0.43132   0.94994   1.000
    C120    C    0.10817   0.35491   0.89733   1.000
    C121    C    0.98580   0.59803   0.97402   1.000
    C122    C    0.02854   0.90850   0.35072   1.000
    C123    C    0.17336   0.02369   0.38713   1.000
    C124    C    0.07789   0.06207   0.31810   1.000
    C125    C    0.86690   0.99783   0.22606   1.000
    C126    C    0.81425   0.91554   0.17224   1.000
    C127    C    0.70009   0.92561   0.10551   1.000
    C128    C    0.63810   0.01833   0.09097   1.000
    C129    C    0.69212   0.09989   0.14536   1.000
    C130    C    0.80555   0.08981   0.21302   1.000
    C131    C    0.27714   0.71123   0.36586   1.000
    C132    C    0.32872   0.65861   0.29589   1.000
    C133    C    0.45746   0.66343   0.29761   1.000
    C134    C    0.50041   0.62071   0.22738   1.000
    C135    C    0.41588   0.57127   0.15422   1.000
    C136    C    0.28790   0.56379   0.15457   1.000
    C137    C    0.24509   0.60699   0.22434   1.000
    C138    C    0.45921   0.53160   0.07612   1.000
    C139    C    0.44492   0.43074   0.04952   1.000
    C140    C    0.39142   0.35431   0.10180   1.000
    C141    C    0.51412   0.59739   0.02576   1.000
    N142    N    0.64132   0.07096   0.40727   1.000
    N143    N    0.48566   0.01120   0.29449   1.000
    N144    N    0.02343   0.96251   0.02488   1.000
    N145    N    0.86093   0.07095   0.59250   1.000
    N146    N    0.01429   0.01169   0.70518   1.000
    N147    N    0.47640   0.96290   0.97446   1.000
    N148    N    0.35997   0.92857   0.59246   1.000
    N149    N    0.51496   0.98849   0.70551   1.000
    N150    N    0.97666   0.03751   0.97518   1.000
    N151    N    0.14112   0.92847   0.40759   1.000
    N152    N    0.98447   0.98902   0.29433   1.000
    N153    N    0.52316   0.03779   0.02416   1.000
    O154    O    0.66281   0.29502   0.36325   1.000
    O155    O    0.85826   0.23366   0.42547   1.000
    O156    O    0.84000   0.29528   0.63715   1.000
    O157    O    0.64492   0.23345   0.57437   1.000
    O158    O    0.33912   0.70450   0.63729   1.000
    O159    O    0.14395   0.76607   0.57468   1.000
    O160    O    0.16183   0.70444   0.36280   1.000
    O161    O    0.35718   0.76594   0.42536   1.000
loop_
    _geom_bond_atom_site_label_1
    _geom_bond_atom_site_label_2
    _geom_bond_distance
    _geom_bond_site_symmetry_2
    _ccdc_geom_bond_type
    N153   C128      1.41277      .   S
    N153   N147      1.27958  1_544   S
    N144   C68       1.41321      .   S
    N144   N150      1.28222  1_464   S
    C141   H61       1.09241      .   S
    C141   C138      1.40366      .   S
    C141   C99       1.39925  1_554   S
    C81    H15       1.09242      .   S
    C81    C78       1.40265  1_455   S
    C81    C119      1.39946  1_554   S
    C139   C138      1.41257      .   S
    C139   C140      1.50804      .   S
    C139   C101      1.39927  1_554   S
    C79    C78       1.41241      .   S
    C79    C80       1.50805      .   S
    C79    C121      1.39915  1_554   S
    H51    C127      1.08837      .   S
    H5     C67       1.08838      .   S
    C138   C135      1.48415      .   S
    C78    C75       1.48354      .   S
    H59    C140      1.09884      .   S
    H13    C80       1.09883      .   S
    H60    C140      1.10024      .   S
    H14    C80       1.10024      .   S
    C128   C127      1.40994  1_545   S
    C128   C129      1.40415      .   S
    C68    C67       1.40994  1_565   S
    C68    C69       1.40426      .   S
    H56    C136      1.08881      .   S
    H10    C76       1.08885      .   S
    C140   H58       1.09929      .   S
    C80    H12       1.09929      .   S
    C127   C126      1.38812      .   S
    C67    C66       1.38829      .   S
    H52    C129      1.08968      .   S
    H6     C69       1.08969      .   S
    C129   C130      1.38946      .   S
    C69    C70       1.38960      .   S
    C135   C136      1.40478      .   S
    C135   C134      1.40620      .   S
    C75    C76       1.40465      .   S
    C75    C74       1.40303      .   S
    C136   C137      1.39059      .   S
    C76    C77       1.39036      .   S
    C126   H50       1.08929      .   S
    C126   C125      1.40382      .   S
    C66    H4        1.08929      .   S
    C66    C65       1.40384      .   S
    C130   C125      1.39757  1_545   S
    C130   H53       1.08723      .   S
    C70    C65       1.39768  1_565   S
    C70    H7        1.08730      .   S
    H57    C137      1.08817      .   S
    C137   C132      1.40120      .   S
    C77    H11       1.08822      .   S
    C77    C72       1.40111      .   S
    C125   N152      1.42430      .   S
    C65    N143      1.42463      .   S
    C134   H55       1.09150      .   S
    C134   C133      1.39458      .   S
    C74    H9        1.09151  1_655   S
    C74    C73       1.38655      .   S
    H49    C124      1.08155      .   S
    H3     C64       1.08153      .   S
    N152   C124      1.39426  1_665   S
    N152   C122      1.38526  1_655   S
    N143   C64       1.39139  1_545   S
    N143   C62       1.37100      .   S
    C132   C133      1.40282      .   S
    C132   C131      1.50247      .   S
    C72    C73       1.40270      .   S
    C72    C71       1.50173      .   S
    C133   H54       1.08984      .   S
    C73    H8        1.08356  1_655   S
    C64    C63       1.36736      .   S
    C124   C123      1.36736      .   S
    H1     C62       1.08294      .   S
    H47    C122      1.08287  1_655   S
    C62    N142      1.32881      .   S
    C122   N151      1.32859      .   S
    O160   C131      1.25291      .   S
    O154   C71       1.25285      .   S
    C131   O161      1.30333      .   S
    C71    O155      1.30343      .   S
    C63    N142      1.38657  1_565   S
    C63    H2        1.08340      .   S
    C123   N151      1.38644  1_545   S
    C123   H48       1.08339      .   S
    N142   Zn32      2.10907      .   S
    N151   Zn0       2.10474      .   S
    O161   Zn0       1.99356      .   S
    O155   Zn32      1.99224      .   S
    Zn32   O157      1.99237      .   S
    Zn32   N145      2.10509      .   S
    Zn0    O159      1.99393      .   S
    Zn0    N148      2.10319      .   S
    O157   C91       1.30296      .   S
    O159   C111      1.30327      .   S
    H33    C103      1.08334      .   S
    H17    C83       1.08336      .   S
    N148   C103      1.38643  1_565   S
    N148   C102      1.32857      .   S
    N145   C83       1.38650  1_545   S
    N145   C82       1.32871      .   S
    C103   C104      1.36730      .   S
    C83    C84       1.36734      .   S
    C91    O156      1.25280      .   S
    C91    C92       1.50213      .   S
    C111   O158      1.25284      .   S
    C111   C112      1.50277      .   S
    H23    C93       1.08987      .   S
    H39    C113      1.09938  1_655   S
    C102   H31       1.08294      .   S
    C102   N149      1.37047      .   S
    C82    H16       1.08004  1_655   S
    C82    N146      1.35866  1_655   S
    C104   N149      1.39129  1_545   S
    C104   H34       1.08152      .   S
    C84    N146      1.38555  1_665   S
    C84    H18       1.08152      .   S
    C93    C92       1.40275      .   S
    C93    C94       1.39456      .   S
    C113   C112      1.40280      .   S
    C113   C114      1.40024  1_455   S
    C92    C97       1.40103      .   S
    C112   C117      1.40124      .   S
    N146   C85       1.42421      .   S
    N149   C105      1.42401      .   S
    H22    C90       1.08727      .   S
    H38    C110      1.08728      .   S
    H24    C94       1.09154      .   S
    H40    C114      1.09151      .   S
    C94    C95       1.40613      .   S
    C114   C115      1.41219  1_655   S
    C85    C90       1.39753  1_545   S
    C85    C86       1.40374      .   S
    C105   C110      1.39745  1_565   S
    C105   C106      1.40374      .   S
    C97    H26       1.08814      .   S
    C97    C96       1.39044      .   S
    C117   H42       1.08819      .   S
    C117   C116      1.39065      .   S
    C90    C89       1.38952      .   S
    C110   C109      1.38940      .   S
    H19    C86       1.08931      .   S
    H35    C106      1.08932      .   S
    H43    C120      1.09933      .   S
    H27    C100      1.09931      .   S
    C86    C87       1.38804      .   S
    C106   C107      1.38797      .   S
    C96    C95       1.40474      .   S
    C96    H25       1.08878      .   S
    C95    C98       1.48399      .   S
    C116   C115      1.40485      .   S
    C116   H41       1.08883      .   S
    C115   C118      1.48445      .   S
    C89    H21       1.08967      .   S
    C89    C88       1.40414      .   S
    C109   H37       1.08967      .   S
    C109   C108      1.40406      .   S
    C87    C88       1.40994  1_545   S
    C87    H20       1.08838      .   S
    C107   C108      1.40984  1_565   S
    C107   H36       1.08835      .   S
    C120   H45       1.10024      .   S
    C120   H44       1.09881      .   S
    C120   C119      1.50811      .   S
    C100   H29       1.10022      .   S
    C100   H28       1.09882      .   S
    C100   C99       1.50811      .   S
    C88    N147      1.41284      .   S
    C108   N150      1.41257      .   S
    C98    C99       1.41251      .   S
    C98    C101      1.40354      .   S
    C118   C119      1.41259      .   S
    C118   C121      1.40524  1_455   S
    H30    C101      1.09242      .   S
    H46    C121      1.09241      .   S
