# CIF file generated by openbabel 2.4.90, see http://openbabel.sf.net
data_I
_chemical_name_common ''
_cell_length_a 10.9375
_cell_length_b 13.463
_cell_length_c 15.13
_cell_angle_alpha 90.056
_cell_angle_beta 105.416
_cell_angle_gamma 90.013
_space_group_name_H-M_alt 'P 1'
_space_group_name_Hall 'P 1'
loop_
    _symmetry_equiv_pos_as_xyz
    x,y,z
loop_
    _atom_site_label
    _atom_site_type_symbol
    _atom_site_fract_x
    _atom_site_fract_y
    _atom_site_fract_z
    _atom_site_occupancy
    N0      N    0.50041   0.49951   0.99971   1.000
    N1      N    0.50000   0.00017   0.99968   1.000
    N2      N    0.00025   0.99987   0.99999   1.000
    N3      N    0.99989   0.49991   0.00000   1.000
    Zr4     Zr   0.75150   0.25829   0.50004   1.000
    O5      O    0.79995   0.15975   0.36342   1.000
    O6      O    0.70233   0.15982   0.63650   1.000
    O7      O    0.67553   0.33264   0.66716   1.000
    O8      O    0.82665   0.33278   0.33282   1.000
    Zr9     Zr   0.25052   0.74128   0.50003   1.000
    O10     O    0.32609   0.66675   0.33266   1.000
    O11     O    0.17472   0.66692   0.66731   1.000
    O12     O    0.20164   0.83985   0.63657   1.000
    O13     O    0.29922   0.83991   0.36339   1.000
loop_
    _geom_bond_atom_site_label_1
    _geom_bond_atom_site_label_2
    _geom_bond_distance
    _geom_bond_site_symmetry_2
    _ccdc_geom_bond_type
    Zr4    O5        2.62510      .   S
    N2     O5        6.78615  1_466   S
    Zr4    O6        2.62762      .   S
    N1     O6        6.79691      .   S
    Zr4    O7        3.03287      .   S
    N0     O7        6.25581      .   S
    Zr4    O8        3.03197      .   S
    N3     O8        6.25316      .   S
    Zr9    O10       3.03492      .   S
    N0     O10       6.25835  1_556   S
    Zr9    O11       3.03564      .   S
    N3     O11       6.26001  1_654   S
    Zr9    O12       2.62617      .   S
    N2     O12       6.79302      .   S
    Zr9    O13       2.62904      .   S
    N1     O13       6.79743  1_546   S
