# CIF file generated by openbabel 2.4.90, see http://openbabel.sf.net
data_I
_chemical_name_common ''
_cell_length_a 10.9375
_cell_length_b 13.463
_cell_length_c 15.13
_cell_angle_alpha 90.056
_cell_angle_beta 105.416
_cell_angle_gamma 90.013
_space_group_name_H-M_alt 'P 1'
_space_group_name_Hall 'P 1'
loop_
    _symmetry_equiv_pos_as_xyz
    x,y,z
loop_
    _atom_site_label
    _atom_site_type_symbol
    _atom_site_fract_x
    _atom_site_fract_y
    _atom_site_fract_z
    _atom_site_occupancy
    Zr0     Zr   0.75175   0.17410   0.49994   1.000
    Zr1     Zr   0.25058   0.82537   0.50002   1.000
    Zr2     Zr   0.77806   0.28832   0.36618   1.000
    Zr3     Zr   0.72468   0.28824   0.63393   1.000
    Zr4     Zr   0.22382   0.71142   0.63419   1.000
    Zr5     Zr   0.27714   0.71123   0.36586   1.000
    Zr6     Zr   0.66281   0.29502   0.36325   1.000
    Zr7     Zr   0.85826   0.23366   0.42547   1.000
    Zr8     Zr   0.84000   0.29528   0.63715   1.000
    Zr9     Zr   0.64492   0.23345   0.57437   1.000
    Zr10    Zr   0.33912   0.70450   0.63729   1.000
    Zr11    Zr   0.14395   0.76607   0.57468   1.000
    Zr12    Zr   0.16183   0.70444   0.36280   1.000
    Zr13    Zr   0.35718   0.76594   0.42536   1.000
    O14     O    0.21948   0.70784   0.36433   1.000
    O15     O    0.72043   0.29167   0.36471   1.000
    O16     O    0.31716   0.73859   0.39561   1.000
    O17     O    0.81816   0.26099   0.39583   1.000
    O18     O    0.30388   0.79566   0.46269   1.000
    O19     O    0.80500   0.20388   0.46271   1.000
    O20     O    0.69833   0.20378   0.53716   1.000
    O21     O    0.19726   0.79572   0.53735   1.000
    O22     O    0.68480   0.26084   0.60415   1.000
    O23     O    0.18388   0.73874   0.60444   1.000
    O24     O    0.78234   0.29176   0.63554   1.000
    O25     O    0.28147   0.70796   0.63574   1.000
    N26     N    0.50041   0.49951   0.99971   1.000
    O27     O    0.40167   0.59222   0.16530   1.000
    O28     O    0.59955   0.40699   0.83428   1.000
    N29     N    0.50000   0.00017   0.99968   1.000
    O30     O    0.34793   0.93855   0.22674   1.000
    O31     O    0.65317   0.06135   0.77295   1.000
    N32     N    0.00025   0.99987   0.99999   1.000
    O33     O    0.15276   0.93842   0.77312   1.000
    O34     O    0.84839   0.06120   0.22680   1.000
    N35     N    0.99989   0.49991   0.00000   1.000
    O36     O    0.09892   0.59256   0.83458   1.000
    O37     O    0.90181   0.40727   0.16560   1.000
loop_
    _geom_bond_atom_site_label_1
    _geom_bond_atom_site_label_2
    _geom_bond_distance
    _geom_bond_site_symmetry_2
    _ccdc_geom_bond_type
    Zr12   O14       0.62646      .   S
    Zr5    O14       0.62646      .   S
    Zr6    O15       0.62642      .   S
    Zr2    O15       0.62642      .   S
    Zr5    O16       0.65166      .   S
    Zr13   O16       0.65166      .   S
    Zr2    O17       0.65172      .   S
    Zr7    O17       0.65172      .   S
    Zr13   O18       0.99678      .   S
    Zr1    O18       0.99678      .   S
    Zr7    O19       0.99612      .   S
    Zr0    O19       0.99612      .   S
    Zr0    O20       0.99618      .   S
    Zr9    O20       0.99618      .   S
    Zr1    O21       0.99696      .   S
    Zr11   O21       0.99696      .   S
    Zr9    O22       0.65148      .   S
    Zr3    O22       0.65148      .   S
    Zr11   O23       0.65163      .   S
    Zr4    O23       0.65163      .   S
    Zr3    O24       0.62640      .   S
    Zr8    O24       0.62640      .   S
    Zr4    O25       0.62642      .   S
    Zr10   O25       0.62642      .   S
    N26    O27       3.23006  1_556   S
    Zr5    O27       3.97750      .   S
    N26    O28       3.22955      .   S
    Zr3    O28       3.97683      .   S
    N29    O30       4.27788  1_546   S
    Zr1    O30       4.78570      .   S
    N29    O31       4.27935      .   S
    Zr0    O31       4.78622      .   S
    N32    O33       4.27662      .   S
    Zr1    O33       4.78251      .   S
    N32    O34       4.27103  1_466   S
    Zr0    O34       4.77680      .   S
    N35    O36       3.23107  1_654   S
    Zr4    O36       3.97877      .   S
    N35    O37       3.22771      .   S
    Zr2    O37       3.97476      .   S
