# CIF file generated by openbabel 2.4.90, see http://openbabel.sf.net
data_I
_chemical_name_common ''
_cell_length_a 18.343
_cell_length_b 19.757
_cell_length_c 19.757
_cell_angle_alpha 90
_cell_angle_beta 90
_cell_angle_gamma 89.999
_space_group_name_H-M_alt 'P 1'
_space_group_name_Hall 'P 1'
loop_
    _symmetry_equiv_pos_as_xyz
    x,y,z
loop_
    _atom_site_label
    _atom_site_type_symbol
    _atom_site_fract_x
    _atom_site_fract_y
    _atom_site_fract_z
    _atom_site_occupancy
    N0      N    0.88827   0.79445   0.93431   1.000
    N1      N    0.38827   0.79445   0.93432   1.000
    N2      N    0.38828   0.20557   0.06566   1.000
    N3      N    0.88827   0.20557   0.06566   1.000
    N4      N    0.38827   0.93434   0.20556   1.000
    N5      N    0.88827   0.93434   0.20556   1.000
    N6      N    0.63827   0.43435   0.29442   1.000
    N7      N    0.13828   0.43435   0.29442   1.000
    N8      N    0.38828   0.06567   0.79444   1.000
    N9      N    0.88828   0.06567   0.79442   1.000
    N10     N    0.63827   0.29444   0.56567   1.000
    N11     N    0.13828   0.29444   0.56566   1.000
    N12     N    0.13827   0.70558   0.43434   1.000
    N13     N    0.63827   0.70558   0.43433   1.000
    N14     N    0.63827   0.56567   0.70558   1.000
    N15     N    0.13828   0.56567   0.70557   1.000
    Zr16    Zr   0.63344   0.68461   0.14743   1.000
    O17     O    0.62073   0.61078   0.18864   1.000
    O18     O    0.55503   0.75458   0.16235   1.000
    O19     O    0.56798   0.71297   0.07712   1.000
    O20     O    0.70263   0.76315   0.16571   1.000
    O21     O    0.71448   0.71188   0.08753   1.000
    Zr22    Zr   0.38264   0.68535   0.87615   1.000
    O23     O    0.45928   0.65130   0.82062   1.000
    O24     O    0.30933   0.64284   0.82717   1.000
    Zr25    Zr   0.63344   0.85259   0.68460   1.000
    O26     O    0.62073   0.81138   0.61077   1.000
    O27     O    0.71449   0.91248   0.71187   1.000
    O28     O    0.56798   0.92290   0.71297   1.000
    O29     O    0.70263   0.83431   0.76314   1.000
    O30     O    0.55503   0.83767   0.75457   1.000
    Zr31    Zr   0.88344   0.64744   0.18400   1.000
    O32     O    0.95263   0.66572   0.26277   1.000
    O33     O    0.80503   0.66236   0.25419   1.000
    O34     O    0.96448   0.58755   0.21149   1.000
    O35     O    0.81798   0.57713   0.21258   1.000
    O36     O    0.87073   0.68865   0.11039   1.000
    Zr37    Zr   0.63264   0.81468   0.37614   1.000
    O38     O    0.55932   0.85719   0.32716   1.000
    O39     O    0.70928   0.84873   0.32061   1.000
    Zr40    Zr   0.38345   0.81542   0.64744   1.000
    O41     O    0.30504   0.74545   0.66236   1.000
    O42     O    0.46449   0.78815   0.58754   1.000
    O43     O    0.37074   0.88925   0.68865   1.000
    O44     O    0.45264   0.73687   0.66572   1.000
    O45     O    0.31798   0.78705   0.57713   1.000
    Zr46    Zr   0.88264   0.68535   0.87615   1.000
    O47     O    0.80932   0.64284   0.82717   1.000
    O48     O    0.95928   0.65130   0.82062   1.000
    Zr49    Zr   0.13264   0.81468   0.37614   1.000
    O50     O    0.20928   0.84873   0.32061   1.000
    O51     O    0.05932   0.85719   0.32716   1.000
    Zr52    Zr   0.13265   0.18534   0.62387   1.000
    O53     O    0.05933   0.14283   0.67285   1.000
    O54     O    0.20929   0.15129   0.67940   1.000
    Zr55    Zr   0.38345   0.35258   0.81542   1.000
    O56     O    0.31799   0.42289   0.78705   1.000
    O57     O    0.37074   0.31137   0.88925   1.000
    O58     O    0.30504   0.33766   0.74544   1.000
    O59     O    0.46449   0.41247   0.78814   1.000
    O60     O    0.45264   0.33430   0.73687   1.000
    Zr61    Zr   0.63344   0.14743   0.31541   1.000
    O62     O    0.55504   0.16235   0.24544   1.000
    O63     O    0.70264   0.16571   0.23686   1.000
    O64     O    0.56798   0.07712   0.28704   1.000
    O65     O    0.62074   0.18864   0.38924   1.000
    O66     O    0.71449   0.08754   0.28813   1.000
    Zr67    Zr   0.13345   0.85259   0.68460   1.000
    O68     O    0.06798   0.92290   0.71296   1.000
    O69     O    0.21449   0.91248   0.71188   1.000
    O70     O    0.20264   0.83431   0.76314   1.000
    O71     O    0.12074   0.81138   0.61076   1.000
    O72     O    0.05504   0.83767   0.75456   1.000
    Zr73    Zr   0.88344   0.35258   0.81542   1.000
    O74     O    0.87074   0.31137   0.88924   1.000
    O75     O    0.81798   0.42289   0.78705   1.000
    O76     O    0.95264   0.33430   0.73687   1.000
    O77     O    0.80503   0.33766   0.74545   1.000
    O78     O    0.96449   0.41248   0.78814   1.000
    Zr79    Zr   0.63264   0.62387   0.81467   1.000
    O80     O    0.55932   0.67286   0.85718   1.000
    O81     O    0.70928   0.67940   0.84872   1.000
    Zr82    Zr   0.38344   0.64744   0.18460   1.000
    O83     O    0.46449   0.58755   0.21187   1.000
    O84     O    0.45264   0.66572   0.26314   1.000
    O85     O    0.37074   0.68865   0.11076   1.000
    O86     O    0.30503   0.66236   0.25457   1.000
    O87     O    0.31798   0.57713   0.21296   1.000
    Zr88    Zr   0.88264   0.12386   0.68535   1.000
    O89     O    0.95928   0.17939   0.65129   1.000
    O90     O    0.80932   0.17284   0.64284   1.000
    Zr91    Zr   0.88344   0.18460   0.35250   1.000
    O92     O    0.96449   0.21187   0.41242   1.000
    O93     O    0.87073   0.11077   0.31131   1.000
    O94     O    0.95264   0.26315   0.33424   1.000
    O95     O    0.81798   0.21296   0.42284   1.000
    O96     O    0.80503   0.25457   0.33760   1.000
    Zr97    Zr   0.38264   0.87616   0.31466   1.000
    O98     O    0.45928   0.82063   0.34871   1.000
    O99     O    0.30932   0.82718   0.35717   1.000
    Zr100   Zr   0.63264   0.18534   0.62387   1.000
    O101    O    0.70929   0.15129   0.67939   1.000
    O102    O    0.55933   0.14283   0.67285   1.000
    Zr103   Zr   0.38264   0.31467   0.12386   1.000
    O104    O    0.45928   0.34872   0.17938   1.000
    O105    O    0.30932   0.35718   0.17284   1.000
    Zr106   Zr   0.38345   0.18460   0.35257   1.000
    O107    O    0.37074   0.11077   0.31136   1.000
    O108    O    0.45264   0.26315   0.33428   1.000
    O109    O    0.46449   0.21187   0.41247   1.000
    O110    O    0.31799   0.21296   0.42288   1.000
    O111    O    0.30504   0.25457   0.33765   1.000
    Zr112   Zr   0.13345   0.68461   0.14743   1.000
    O113    O    0.20264   0.76315   0.16571   1.000
    O114    O    0.05503   0.75458   0.16235   1.000
    O115    O    0.21449   0.71188   0.08753   1.000
    O116    O    0.12074   0.61078   0.18864   1.000
    O117    O    0.06798   0.71297   0.07711   1.000
    Zr118   Zr   0.38265   0.12386   0.68535   1.000
    O119    O    0.30933   0.17285   0.64283   1.000
    O120    O    0.45929   0.17939   0.65129   1.000
    Zr121   Zr   0.88264   0.31467   0.12386   1.000
    O122    O    0.95928   0.34872   0.17938   1.000
    O123    O    0.80932   0.35718   0.17284   1.000
    Zr124   Zr   0.63264   0.37615   0.18534   1.000
    O125    O    0.70928   0.32062   0.15128   1.000
    O126    O    0.55932   0.32717   0.14283   1.000
    Zr127   Zr   0.13345   0.14743   0.31540   1.000
    O128    O    0.21449   0.08754   0.28813   1.000
    O129    O    0.05504   0.16235   0.24543   1.000
    O130    O    0.20264   0.16571   0.23685   1.000
    O131    O    0.12074   0.18864   0.38923   1.000
    O132    O    0.06798   0.07712   0.28704   1.000
    Zr133   Zr   0.63345   0.31541   0.85250   1.000
    O134    O    0.56798   0.28705   0.92284   1.000
    O135    O    0.70264   0.23686   0.83424   1.000
    O136    O    0.71449   0.28814   0.91241   1.000
    O137    O    0.62074   0.38924   0.81132   1.000
    O138    O    0.55504   0.24544   0.83761   1.000
    Zr139   Zr   0.88344   0.81542   0.64743   1.000
    O140    O    0.87073   0.88925   0.68864   1.000
    O141    O    0.95263   0.73687   0.66571   1.000
    O142    O    0.80503   0.74545   0.66235   1.000
    O143    O    0.81797   0.78706   0.57712   1.000
    O144    O    0.96448   0.78815   0.58753   1.000
    Zr145   Zr   0.13345   0.31541   0.85259   1.000
    O146    O    0.21449   0.28814   0.91248   1.000
    O147    O    0.05504   0.24544   0.83760   1.000
    O148    O    0.12074   0.38924   0.81137   1.000
    O149    O    0.06799   0.28705   0.92289   1.000
    O150    O    0.20264   0.23686   0.83430   1.000
    Zr151   Zr   0.13265   0.37615   0.18534   1.000
    O152    O    0.05933   0.32717   0.14283   1.000
    O153    O    0.20929   0.32062   0.15128   1.000
    Zr154   Zr   0.88263   0.87616   0.31466   1.000
    O155    O    0.95928   0.82063   0.34872   1.000
    O156    O    0.80932   0.82718   0.35717   1.000
    Zr157   Zr   0.13264   0.62387   0.81467   1.000
    O158    O    0.20929   0.67940   0.84872   1.000
    O159    O    0.05932   0.67285   0.85717   1.000
    O160    O    0.64276   0.76541   0.68851   1.000
    O161    O    0.39276   0.73461   0.18850   1.000
    O162    O    0.89275   0.73461   0.18813   1.000
    O163    O    0.39276   0.81151   0.73461   1.000
    O164    O    0.89276   0.18850   0.26535   1.000
    O165    O    0.89276   0.26541   0.81148   1.000
    O166    O    0.64276   0.68852   0.23460   1.000
    O167    O    0.14277   0.23461   0.31149   1.000
    O168    O    0.39277   0.26540   0.81151   1.000
    O169    O    0.63407   0.78294   0.39296   1.000
    O170    O    0.14276   0.76541   0.68851   1.000
    O171    O    0.38408   0.28293   0.10704   1.000
    O172    O    0.39277   0.18851   0.26540   1.000
    O173    O    0.14276   0.68851   0.23460   1.000
    O174    O    0.13408   0.21708   0.60705   1.000
    O175    O    0.14277   0.31150   0.76540   1.000
    O176    O    0.63408   0.21708   0.60705   1.000
    O177    O    0.64276   0.31151   0.76535   1.000
    O178    O    0.88407   0.71709   0.89296   1.000
    O179    O    0.89275   0.81152   0.73460   1.000
    O180    O    0.88407   0.89297   0.28293   1.000
    O181    O    0.38408   0.71709   0.89296   1.000
    O182    O    0.88407   0.28293   0.10704   1.000
    O183    O    0.88407   0.10705   0.71708   1.000
    O184    O    0.13408   0.39297   0.21707   1.000
    O185    O    0.13408   0.60705   0.78294   1.000
    O186    O    0.64276   0.23461   0.31150   1.000
    O187    O    0.63407   0.39297   0.21707   1.000
    O188    O    0.38408   0.10705   0.71708   1.000
    O189    O    0.13407   0.78294   0.39296   1.000
    O190    O    0.38407   0.89297   0.28292   1.000
    O191    O    0.63407   0.60705   0.78294   1.000
loop_
    _geom_bond_atom_site_label_1
    _geom_bond_atom_site_label_2
    _geom_bond_distance
    _geom_bond_site_symmetry_2
    _ccdc_geom_bond_type
    Zr16   O17       1.68670      .   S
    N6     O17       4.07692      .   S
    Zr16   O18       2.01650      .   S
    N4     O18       4.76432      .   S
    Zr16   O19       1.91984      .   S
    N1     O19       4.62768  1_556   S
    Zr16   O20       2.03704      .   S
    N5     O20       4.86351      .   S
    Zr16   O21       1.97508      .   S
    N0     O21       4.68897  1_556   S
    Zr22   O23       1.90592      .   S
    N14    O23       4.33671      .   S
    Zr22   O24       1.85761      .   S
    N15    O24       4.23557      .   S
    Zr25   O26       1.68676      .   S
    N13    O26       4.07714      .   S
    Zr25   O27       1.97497      .   S
    N9     O27       4.68856  1_545   S
    Zr25   O28       1.91971      .   S
    N8     O28       4.62739  1_545   S
    Zr25   O29       2.03697      .   S
    N0     O29       4.86330      .   S
    Zr25   O30       2.01651      .   S
    N1     O30       4.76433      .   S
    Zr31   O32       2.04045      .   S
    N12    O32       4.86879  1_455   S
    Zr31   O33       2.01957      .   S
    N13    O33       4.76995      .   S
    Zr31   O34       1.97621      .   S
    N7     O34       4.69120  1_455   S
    Zr31   O35       1.92106      .   S
    N6     O35       4.63010      .   S
    Zr31   O36       1.68302      .   S
    N0     O36       4.07108  1_556   S
    Zr37   O38       1.85756      .   S
    N4     O38       4.23544      .   S
    Zr37   O39       1.90593      .   S
    N5     O39       4.33672      .   S
    Zr40   O41       2.01660      .   S
    N15    O41       4.76459      .   S
    Zr40   O42       1.97500      .   S
    N13    O42       4.68875      .   S
    Zr40   O43       1.68669      .   S
    N8     O43       4.07687  1_545   S
    Zr40   O44       2.03706      .   S
    N14    O44       4.86359      .   S
    Zr40   O45       1.91986      .   S
    N12    O45       4.62775      .   S
    Zr46   O47       1.85758      .   S
    N14    O47       4.23550      .   S
    Zr46   O48       1.90597      .   S
    N15    O48       4.33684  1_455   S
    Zr49   O50       1.90595      .   S
    N4     O50       4.33675      .   S
    Zr49   O51       1.85756      .   S
    N5     O51       4.23547  1_655   S
    Zr52   O53       1.85755      .   S
    N9     O53       4.23542  1_655   S
    Zr52   O54       1.90591      .   S
    N8     O54       4.33668      .   S
    Zr55   O56       1.91981      .   S
    N15    O56       4.62766      .   S
    Zr55   O57       1.68666      .   S
    N2     O57       4.07685  1_554   S
    Zr55   O58       2.01665      .   S
    N11    O58       4.76475      .   S
    Zr55   O59       1.97499      .   S
    N14    O59       4.68869      .   S
    Zr55   O60       2.03710      .   S
    N10    O60       4.86368      .   S
    Zr61   O62       2.01658      .   S
    N2     O62       4.76455      .   S
    Zr61   O63       2.03712      .   S
    N3     O63       4.86374      .   S
    Zr61   O64       1.91983      .   S
    N4     O64       4.62773  1_565   S
    Zr61   O65       1.68671      .   S
    N10    O65       4.07702      .   S
    Zr61   O66       1.97497      .   S
    N5     O66       4.68864  1_565   S
    Zr67   O68       1.91971      .   S
    N9     O68       4.62738  1_645   S
    Zr67   O69       1.97499      .   S
    N8     O69       4.68863  1_545   S
    Zr67   O70       2.03701      .   S
    N1     O70       4.86340      .   S
    Zr67   O71       1.68690      .   S
    N12    O71       4.07699      .   S
    Zr67   O72       2.01651      .   S
    N0     O72       4.76424  1_655   S
    Zr73   O74       1.68653      .   S
    N3     O74       4.07691  1_554   S
    Zr73   O75       1.91978      .   S
    N14    O75       4.62759      .   S
    Zr73   O76       2.03717      .   S
    N11    O76       4.86387  1_455   S
    Zr73   O77       2.01661      .   S
    N10    O77       4.76465      .   S
    Zr73   O78       1.97507      .   S
    N15    O78       4.68880  1_455   S
    Zr79   O80       1.85753      .   S
    N1     O80       4.23537      .   S
    Zr79   O81       1.90589      .   S
    N0     O81       4.33658      .   S
    Zr82   O83       1.97494      .   S
    N6     O83       4.68853      .   S
    Zr82   O84       2.03703      .   S
    N13    O84       4.86354      .   S
    Zr82   O85       1.68682      .   S
    N1     O85       4.07725  1_556   S
    Zr82   O86       2.01655      .   S
    N12    O86       4.76445      .   S
    Zr82   O87       1.91976      .   S
    N7     O87       4.62753      .   S
    Zr88   O89       1.90601      .   S
    N11    O89       4.33695  1_455   S
    Zr88   O90       1.85759      .   S
    N10    O90       4.23551      .   S
    Zr91   O92       1.97530      .   S
    N11    O92       4.68937  1_455   S
    Zr91   O93       1.68648      .   S
    N5     O93       4.07659  1_565   S
    Zr91   O94       2.03706      .   S
    N7     O94       4.86366  1_455   S
    Zr91   O95       1.92018      .   S
    N10    O95       4.62813      .   S
    Zr91   O96       2.01651      .   S
    N6     O96       4.76445      .   S
    Zr97   O98       1.90592      .   S
    N13    O98       4.33671      .   S
    Zr97   O99       1.85759      .   S
    N12    O99       4.23552      .   S
    Zr100  O101      1.90588      .   S
    N9     O101      4.33656      .   S
    Zr100  O102      1.85758      .   S
    N8     O102      4.23547      .   S
    Zr103  O104      1.90589      .   S
    N6     O104      4.33662      .   S
    Zr103  O105      1.85754      .   S
    N7     O105      4.23536      .   S
    Zr106  O107      1.68675      .   S
    N4     O107      4.07707  1_565   S
    Zr106  O108      2.03711      .   S
    N6     O108      4.86368      .   S
    Zr106  O109      1.97499      .   S
    N10    O109      4.68870      .   S
    Zr106  O110      1.91979      .   S
    N11    O110      4.62759      .   S
    Zr106  O111      2.01660      .   S
    N7     O111      4.76463      .   S
    Zr112  O113      2.03704      .   S
    N4     O113      4.86349      .   S
    Zr112  O114      2.01655      .   S
    N5     O114      4.76439  1_655   S
    Zr112  O115      1.97504      .   S
    N1     O115      4.68882  1_556   S
    Zr112  O116      1.68669      .   S
    N7     O116      4.07691      .   S
    Zr112  O117      1.91990      .   S
    N0     O117      4.62788  1_656   S
    Zr118  O119      1.85763      .   S
    N11    O119      4.23559      .   S
    Zr118  O120      1.90594      .   S
    N10    O120      4.33676      .   S
    Zr121  O122      1.90593      .   S
    N7     O122      4.33674  1_455   S
    Zr121  O123      1.85753      .   S
    N6     O123      4.23533      .   S
    Zr124  O125      1.90595      .   S
    N3     O125      4.33679      .   S
    Zr124  O126      1.85759      .   S
    N2     O126      4.23550      .   S
    Zr127  O128      1.97494      .   S
    N4     O128      4.68857  1_565   S
    Zr127  O129      2.01663      .   S
    N3     O129      4.76455  1_655   S
    Zr127  O130      2.03704      .   S
    N2     O130      4.86356      .   S
    Zr127  O131      1.68667      .   S
    N11    O131      4.07714      .   S
    Zr127  O132      1.91983      .   S
    N5     O132      4.62776  1_665   S
    Zr133  O134      1.92020      .   S
    N2     O134      4.62814  1_554   S
    Zr133  O135      2.03698      .   S
    N9     O135      4.86347      .   S
    Zr133  O136      1.97522      .   S
    N3     O136      4.68924  1_554   S
    Zr133  O137      1.68645      .   S
    N14    O137      4.07655      .   S
    Zr133  O138      2.01649      .   S
    N8     O138      4.76438      .   S
    Zr139  O140      1.68665      .   S
    N9     O140      4.07678  1_545   S
    Zr139  O141      2.03713      .   S
    N15    O141      4.86376  1_455   S
    Zr139  O142      2.01659      .   S
    N14    O142      4.76459      .   S
    Zr139  O143      1.91979      .   S
    N13    O143      4.62763      .   S
    Zr139  O144      1.97513      .   S
    N12    O144      4.68867  1_455   S
    Zr145  O146      1.97490      .   S
    N2     O146      4.68846  1_554   S
    Zr145  O147      2.01683      .   S
    N9     O147      4.76445  1_655   S
    Zr145  O148      1.68679      .   S
    N15    O148      4.07714      .   S
    Zr145  O149      1.91972      .   S
    N3     O149      4.62749  1_654   S
    Zr145  O150      2.03707      .   S
    N8     O150      4.86357      .   S
    Zr151  O152      1.85763      .   S
    N3     O152      4.23562  1_655   S
    Zr151  O153      1.90593      .   S
    N2     O153      4.33673      .   S
    Zr154  O155      1.90596      .   S
    N12    O155      4.33681  1_455   S
    Zr154  O156      1.85758      .   S
    N13    O156      4.23547      .   S
    Zr157  O158      1.90591      .   S
    N1     O158      4.33664      .   S
    Zr157  O159      1.85752      .   S
    N0     O159      4.23537  1_655   S
    Zr25   O160      1.73252      .   S
    N14    O160      3.96149      .   S
    N4     O161      3.96122      .   S
    Zr82   O161      1.73244      .   S
    Zr31   O162      1.73264      .   S
    N5     O162      3.96185      .   S
    Zr40   O163      1.73236      .   S
    N1     O163      3.96103      .   S
    N3     O164      3.96055      .   S
    Zr91   O164      1.73200      .   S
    N9     O165      3.96140      .   S
    Zr73   O165      1.73254      .   S
    Zr16   O166      1.73245      .   S
    N13    O166      3.96132      .   S
    Zr127  O167      1.73252      .   S
    N7     O167      3.96150      .   S
    N8     O168      3.96142      .   S
    Zr55   O168      1.73250      .   S
    Zr37   O169      0.71007      .   S
    N13    O169      1.73500      .   S
    N15    O170      3.96149      .   S
    Zr67   O170      1.73253      .   S
    N2     O171      1.73503      .   S
    Zr103  O171      0.71008      .   S
    N2     O172      3.96137      .   S
    Zr106  O172      1.73247      .   S
    N12    O173      3.96133      .   S
    Zr112  O173      1.73247      .   S
    N11    O174      1.73508      .   S
    Zr52   O174      0.71013      .   S
    N11    O175      3.96157      .   S
    Zr145  O175      1.73270      .   S
    N10    O176      1.73507      .   S
    Zr100  O176      0.71010      .   S
    N10    O177      3.96049      .   S
    Zr133  O177      1.73191      .   S
    N0     O178      1.73480      .   S
    Zr46   O178      0.71000      .   S
    N0     O179      3.96097      .   S
    Zr139  O179      1.73237      .   S
    N5     O180      1.73496      .   S
    Zr154  O180      0.71004      .   S
    N1     O181      1.73487      .   S
    Zr22   O181      0.71002      .   S
    Zr121  O182      0.71009      .   S
    N3     O182      1.73507      .   S
    Zr88   O183      0.70997      .   S
    N9     O183      1.73472      .   S
    N7     O184      1.73480      .   S
    Zr151  O184      0.71000      .   S
    Zr157  O185      0.71008      .   S
    N15    O185      1.73505      .   S
    Zr61   O186      1.73253      .   S
    N6     O186      3.96151      .   S
    N6     O187      1.73480      .   S
    Zr124  O187      0.71000      .   S
    Zr118  O188      0.71005      .   S
    N8     O188      1.73498      .   S
    Zr49   O189      0.71007      .   S
    N12    O189      1.73500      .   S
    Zr97   O190      0.71006      .   S
    N4     O190      1.73500      .   S
    Zr79   O191      0.71007      .   S
    N14    O191      1.73502      .   S
