# CIF file generated by openbabel 2.4.90, see http://openbabel.sf.net
data_I
_chemical_name_common ''
_cell_length_a 18.343
_cell_length_b 19.757
_cell_length_c 19.757
_cell_angle_alpha 90
_cell_angle_beta 90
_cell_angle_gamma 89.999
_space_group_name_H-M_alt 'P 1'
_space_group_name_Hall 'P 1'
loop_
    _symmetry_equiv_pos_as_xyz
    x,y,z
loop_
    _atom_site_label
    _atom_site_type_symbol
    _atom_site_fract_x
    _atom_site_fract_y
    _atom_site_fract_z
    _atom_site_occupancy
    N0      N    0.88827   0.79445   0.93431   1.000
    N1      N    0.38827   0.79445   0.93432   1.000
    N2      N    0.38828   0.20557   0.06566   1.000
    N3      N    0.88827   0.20557   0.06566   1.000
    N4      N    0.38827   0.93434   0.20556   1.000
    N5      N    0.88827   0.93434   0.20556   1.000
    N6      N    0.63827   0.43435   0.29442   1.000
    N7      N    0.13828   0.43435   0.29442   1.000
    N8      N    0.38828   0.06567   0.79444   1.000
    N9      N    0.88828   0.06567   0.79442   1.000
    N10     N    0.63827   0.29444   0.56567   1.000
    N11     N    0.13828   0.29444   0.56566   1.000
    N12     N    0.13827   0.70558   0.43434   1.000
    N13     N    0.63827   0.70558   0.43433   1.000
    N14     N    0.63827   0.56567   0.70558   1.000
    N15     N    0.13828   0.56567   0.70557   1.000
    Zr16    Zr   0.63344   0.68461   0.14743   1.000
    O17     O    0.63673   0.69144   0.23787   1.000
    O18     O    0.62073   0.61078   0.18864   1.000
    O19     O    0.55503   0.75458   0.16235   1.000
    O20     O    0.64878   0.68559   0.23134   1.000
    O21     O    0.56798   0.71297   0.07712   1.000
    O22     O    0.70263   0.76315   0.16571   1.000
    O23     O    0.71448   0.71188   0.08753   1.000
    Zr24    Zr   0.38264   0.68535   0.87615   1.000
    O25     O    0.45928   0.65130   0.82062   1.000
    O26     O    0.30933   0.64284   0.82717   1.000
    O27     O    0.38146   0.71194   0.90829   1.000
    O28     O    0.38624   0.72730   0.88082   1.000
    O29     O    0.36554   0.71783   0.88714   1.000
    O30     O    0.40307   0.71128   0.89560   1.000
    Zr31    Zr   0.63344   0.85259   0.68460   1.000
    O32     O    0.62073   0.81138   0.61077   1.000
    O33     O    0.63673   0.76215   0.69143   1.000
    O34     O    0.64878   0.76868   0.68559   1.000
    O35     O    0.71449   0.91248   0.71187   1.000
    O36     O    0.56798   0.92290   0.71297   1.000
    O37     O    0.70263   0.83431   0.76314   1.000
    O38     O    0.55503   0.83767   0.75457   1.000
    Zr39    Zr   0.88344   0.64744   0.18400   1.000
    O40     O    0.95263   0.66572   0.26277   1.000
    O41     O    0.80503   0.66236   0.25419   1.000
    O42     O    0.89878   0.73135   0.18521   1.000
    O43     O    0.96448   0.58755   0.21149   1.000
    O44     O    0.88673   0.73788   0.19105   1.000
    O45     O    0.81798   0.57713   0.21258   1.000
    O46     O    0.87073   0.68865   0.11039   1.000
    Zr47    Zr   0.63264   0.81468   0.37614   1.000
    O48     O    0.63623   0.77273   0.38081   1.000
    O49     O    0.63146   0.78809   0.40828   1.000
    O50     O    0.55932   0.85719   0.32716   1.000
    O51     O    0.61553   0.78221   0.38714   1.000
    O52     O    0.65307   0.78875   0.39560   1.000
    O53     O    0.70928   0.84873   0.32061   1.000
    Zr54    Zr   0.38345   0.81542   0.64744   1.000
    O55     O    0.30504   0.74545   0.66236   1.000
    O56     O    0.46449   0.78815   0.58754   1.000
    O57     O    0.37074   0.88925   0.68865   1.000
    O58     O    0.45264   0.73687   0.66572   1.000
    O59     O    0.38674   0.80859   0.73787   1.000
    O60     O    0.39879   0.81444   0.73134   1.000
    O61     O    0.31798   0.78705   0.57713   1.000
    Zr62    Zr   0.88264   0.68535   0.87615   1.000
    O63     O    0.80932   0.64284   0.82717   1.000
    O64     O    0.95928   0.65130   0.82062   1.000
    O65     O    0.88623   0.72730   0.88081   1.000
    O66     O    0.90307   0.71128   0.89560   1.000
    O67     O    0.88146   0.71194   0.90828   1.000
    O68     O    0.86553   0.71782   0.88714   1.000
    Zr69    Zr   0.13264   0.81468   0.37614   1.000
    O70     O    0.13623   0.77273   0.38081   1.000
    O71     O    0.15307   0.78875   0.39560   1.000
    O72     O    0.20928   0.84873   0.32061   1.000
    O73     O    0.11553   0.78220   0.38714   1.000
    O74     O    0.13146   0.78809   0.40829   1.000
    O75     O    0.05932   0.85719   0.32716   1.000
    Zr76    Zr   0.13265   0.18534   0.62387   1.000
    O77     O    0.05933   0.14283   0.67285   1.000
    O78     O    0.20929   0.15129   0.67940   1.000
    O79     O    0.13147   0.21193   0.59172   1.000
    O80     O    0.15308   0.21127   0.60441   1.000
    O81     O    0.11554   0.21782   0.61287   1.000
    O82     O    0.13624   0.22729   0.61918   1.000
    Zr83    Zr   0.38345   0.35258   0.81542   1.000
    O84     O    0.31799   0.42289   0.78705   1.000
    O85     O    0.37074   0.31137   0.88925   1.000
    O86     O    0.30504   0.33766   0.74544   1.000
    O87     O    0.46449   0.41247   0.78814   1.000
    O88     O    0.39879   0.26867   0.81443   1.000
    O89     O    0.38674   0.26214   0.80859   1.000
    O90     O    0.45264   0.33430   0.73687   1.000
    Zr91    Zr   0.63344   0.14743   0.31541   1.000
    O92     O    0.55504   0.16235   0.24544   1.000
    O93     O    0.70264   0.16571   0.23686   1.000
    O94     O    0.63674   0.23787   0.30858   1.000
    O95     O    0.56798   0.07712   0.28704   1.000
    O96     O    0.62074   0.18864   0.38924   1.000
    O97     O    0.71449   0.08754   0.28813   1.000
    O98     O    0.64878   0.23134   0.31442   1.000
    Zr99    Zr   0.13345   0.85259   0.68460   1.000
    O100    O    0.13674   0.76215   0.69143   1.000
    O101    O    0.06798   0.92290   0.71296   1.000
    O102    O    0.21449   0.91248   0.71188   1.000
    O103    O    0.14879   0.76868   0.68558   1.000
    O104    O    0.20264   0.83431   0.76314   1.000
    O105    O    0.12074   0.81138   0.61076   1.000
    O106    O    0.05504   0.83767   0.75456   1.000
    Zr107   Zr   0.88344   0.35258   0.81542   1.000
    O108    O    0.88673   0.26214   0.80859   1.000
    O109    O    0.87074   0.31137   0.88924   1.000
    O110    O    0.81798   0.42289   0.78705   1.000
    O111    O    0.95264   0.33430   0.73687   1.000
    O112    O    0.89878   0.26867   0.81437   1.000
    O113    O    0.80503   0.33766   0.74545   1.000
    O114    O    0.96449   0.41248   0.78814   1.000
    Zr115   Zr   0.63264   0.62387   0.81467   1.000
    O116    O    0.65307   0.60442   0.78874   1.000
    O117    O    0.63623   0.61920   0.77272   1.000
    O118    O    0.61553   0.61287   0.78220   1.000
    O119    O    0.63146   0.59173   0.78808   1.000
    O120    O    0.55932   0.67286   0.85718   1.000
    O121    O    0.70928   0.67940   0.84872   1.000
    Zr122   Zr   0.38344   0.64744   0.18460   1.000
    O123    O    0.38674   0.73788   0.19142   1.000
    O124    O    0.46449   0.58755   0.21187   1.000
    O125    O    0.39878   0.73135   0.18558   1.000
    O126    O    0.45264   0.66572   0.26314   1.000
    O127    O    0.37074   0.68865   0.11076   1.000
    O128    O    0.30503   0.66236   0.25457   1.000
    O129    O    0.31798   0.57713   0.21296   1.000
    Zr130   Zr   0.88264   0.12386   0.68535   1.000
    O131    O    0.86553   0.11286   0.71782   1.000
    O132    O    0.88146   0.09172   0.71194   1.000
    O133    O    0.88623   0.11919   0.72729   1.000
    O134    O    0.90307   0.10441   0.71127   1.000
    O135    O    0.95928   0.17939   0.65129   1.000
    O136    O    0.80932   0.17284   0.64284   1.000
    Zr137   Zr   0.88344   0.18460   0.35250   1.000
    O138    O    0.88673   0.19143   0.26209   1.000
    O139    O    0.89878   0.18558   0.26861   1.000
    O140    O    0.96449   0.21187   0.41242   1.000
    O141    O    0.87073   0.11077   0.31131   1.000
    O142    O    0.95264   0.26315   0.33424   1.000
    O143    O    0.81798   0.21296   0.42284   1.000
    O144    O    0.80503   0.25457   0.33760   1.000
    Zr145   Zr   0.38264   0.87616   0.31466   1.000
    O146    O    0.45928   0.82063   0.34871   1.000
    O147    O    0.30932   0.82718   0.35717   1.000
    O148    O    0.38146   0.90830   0.28807   1.000
    O149    O    0.36553   0.88715   0.28219   1.000
    O150    O    0.40307   0.89561   0.28873   1.000
    O151    O    0.38623   0.88083   0.27271   1.000
    Zr152   Zr   0.63264   0.18534   0.62387   1.000
    O153    O    0.70929   0.15129   0.67939   1.000
    O154    O    0.55933   0.14283   0.67285   1.000
    O155    O    0.65307   0.21127   0.60441   1.000
    O156    O    0.63146   0.21193   0.59172   1.000
    O157    O    0.63624   0.22729   0.61920   1.000
    O158    O    0.61554   0.21782   0.61287   1.000
    Zr159   Zr   0.38264   0.31467   0.12386   1.000
    O160    O    0.40307   0.28874   0.10440   1.000
    O161    O    0.38624   0.27272   0.11919   1.000
    O162    O    0.36554   0.28220   0.11286   1.000
    O163    O    0.38146   0.28808   0.09172   1.000
    O164    O    0.45928   0.34872   0.17938   1.000
    O165    O    0.30932   0.35718   0.17284   1.000
    Zr166   Zr   0.38345   0.18460   0.35257   1.000
    O167    O    0.38674   0.19143   0.26213   1.000
    O168    O    0.37074   0.11077   0.31136   1.000
    O169    O    0.39879   0.18558   0.26866   1.000
    O170    O    0.45264   0.26315   0.33428   1.000
    O171    O    0.46449   0.21187   0.41247   1.000
    O172    O    0.31799   0.21296   0.42288   1.000
    O173    O    0.30504   0.25457   0.33765   1.000
    Zr174   Zr   0.13345   0.68461   0.14743   1.000
    O175    O    0.13674   0.69144   0.23787   1.000
    O176    O    0.20264   0.76315   0.16571   1.000
    O177    O    0.05503   0.75458   0.16235   1.000
    O178    O    0.21449   0.71188   0.08753   1.000
    O179    O    0.14879   0.68559   0.23134   1.000
    O180    O    0.12074   0.61078   0.18864   1.000
    O181    O    0.06798   0.71297   0.07711   1.000
    Zr182   Zr   0.38265   0.12386   0.68535   1.000
    O183    O    0.36554   0.11286   0.71782   1.000
    O184    O    0.38147   0.09172   0.71194   1.000
    O185    O    0.40308   0.10441   0.71128   1.000
    O186    O    0.30933   0.17285   0.64283   1.000
    O187    O    0.38624   0.11919   0.72730   1.000
    O188    O    0.45929   0.17939   0.65129   1.000
    Zr189   Zr   0.88264   0.31467   0.12386   1.000
    O190    O    0.86553   0.28220   0.11286   1.000
    O191    O    0.90307   0.28874   0.10440   1.000
    O192    O    0.88146   0.28808   0.09172   1.000
    O193    O    0.88623   0.27272   0.11919   1.000
    O194    O    0.95928   0.34872   0.17938   1.000
    O195    O    0.80932   0.35718   0.17284   1.000
    Zr196   Zr   0.63264   0.37615   0.18534   1.000
    O197    O    0.70928   0.32062   0.15128   1.000
    O198    O    0.63623   0.38082   0.22728   1.000
    O199    O    0.55932   0.32717   0.14283   1.000
    O200    O    0.61553   0.38715   0.21781   1.000
    O201    O    0.63146   0.40829   0.21193   1.000
    O202    O    0.65307   0.39561   0.21126   1.000
    Zr203   Zr   0.13345   0.14743   0.31540   1.000
    O204    O    0.21449   0.08754   0.28813   1.000
    O205    O    0.05504   0.16235   0.24543   1.000
    O206    O    0.20264   0.16571   0.23685   1.000
    O207    O    0.12074   0.18864   0.38923   1.000
    O208    O    0.06798   0.07712   0.28704   1.000
    O209    O    0.14879   0.23134   0.31441   1.000
    O210    O    0.13674   0.23787   0.30857   1.000
    Zr211   Zr   0.63345   0.31541   0.85250   1.000
    O212    O    0.56798   0.28705   0.92284   1.000
    O213    O    0.70264   0.23686   0.83424   1.000
    O214    O    0.71449   0.28814   0.91241   1.000
    O215    O    0.62074   0.38924   0.81132   1.000
    O216    O    0.55504   0.24544   0.83761   1.000
    O217    O    0.64879   0.31443   0.76862   1.000
    O218    O    0.63674   0.30858   0.76209   1.000
    Zr219   Zr   0.88344   0.81542   0.64743   1.000
    O220    O    0.87073   0.88925   0.68864   1.000
    O221    O    0.95263   0.73687   0.66571   1.000
    O222    O    0.80503   0.74545   0.66235   1.000
    O223    O    0.81797   0.78706   0.57712   1.000
    O224    O    0.96448   0.78815   0.58753   1.000
    O225    O    0.88673   0.80859   0.73786   1.000
    O226    O    0.89878   0.81444   0.73133   1.000
    Zr227   Zr   0.13345   0.31541   0.85259   1.000
    O228    O    0.13674   0.30858   0.76213   1.000
    O229    O    0.21449   0.28814   0.91248   1.000
    O230    O    0.14879   0.31443   0.76868   1.000
    O231    O    0.05504   0.24544   0.83760   1.000
    O232    O    0.12074   0.38924   0.81137   1.000
    O233    O    0.06799   0.28705   0.92289   1.000
    O234    O    0.20264   0.23686   0.83430   1.000
    Zr235   Zr   0.13265   0.37615   0.18534   1.000
    O236    O    0.05933   0.32717   0.14283   1.000
    O237    O    0.20929   0.32062   0.15128   1.000
    O238    O    0.13146   0.40829   0.21193   1.000
    O239    O    0.13624   0.38082   0.22728   1.000
    O240    O    0.11554   0.38715   0.21781   1.000
    O241    O    0.15308   0.39561   0.21126   1.000
    Zr242   Zr   0.88263   0.87616   0.31466   1.000
    O243    O    0.95928   0.82063   0.34872   1.000
    O244    O    0.80932   0.82718   0.35717   1.000
    O245    O    0.88145   0.90830   0.28807   1.000
    O246    O    0.90307   0.89561   0.28873   1.000
    O247    O    0.86553   0.88715   0.28219   1.000
    O248    O    0.88623   0.88082   0.27271   1.000
    Zr249   Zr   0.13264   0.62387   0.81467   1.000
    O250    O    0.11554   0.61287   0.78220   1.000
    O251    O    0.13146   0.59173   0.78808   1.000
    O252    O    0.13624   0.61920   0.77272   1.000
    O253    O    0.15308   0.60441   0.78874   1.000
    O254    O    0.20929   0.67940   0.84872   1.000
    O255    O    0.05932   0.67285   0.85717   1.000
loop_
    _geom_bond_atom_site_label_1
    _geom_bond_atom_site_label_2
    _geom_bond_distance
    _geom_bond_site_symmetry_2
    _ccdc_geom_bond_type
    Zr16   O17       1.79290      .   S
    N13    O17       3.89171      .   S
    Zr16   O18       1.68670      .   S
    N6     O18       4.07692      .   S
    Zr16   O19       2.01650      .   S
    N4     O19       4.76432      .   S
    Zr16   O20       1.68158      .   S
    N13    O20       4.03461      .   S
    Zr16   O21       1.91984      .   S
    N1     O21       4.62768  1_556   S
    Zr16   O22       2.03704      .   S
    N5     O22       4.86351      .   S
    Zr16   O23       1.97508      .   S
    N0     O23       4.68897  1_556   S
    Zr24   O25       1.90592      .   S
    N14    O25       4.33671      .   S
    Zr24   O26       1.85761      .   S
    N15    O26       4.23557      .   S
    Zr24   O27       0.82439      .   S
    N1     O27       1.71384      .   S
    Zr24   O28       0.83646      .   S
    N1     O28       1.69675      .   S
    Zr24   O29       0.74650      .   S
    N1     O29       1.82607      .   S
    Zr24   O30       0.74198      .   S
    N1     O30       1.83275      .   S
    Zr31   O32       1.68676      .   S
    N13    O32       4.07714      .   S
    Zr31   O33       1.79296      .   S
    N14    O33       3.89189      .   S
    Zr31   O34       1.68166      .   S
    N14    O34       4.03477      .   S
    Zr31   O35       1.97497      .   S
    N9     O35       4.68856  1_545   S
    Zr31   O36       1.91971      .   S
    N8     O36       4.62739  1_545   S
    Zr31   O37       2.03697      .   S
    N0     O37       4.86330      .   S
    Zr31   O38       2.01651      .   S
    N1     O38       4.76433      .   S
    Zr39   O40       2.04045      .   S
    N12    O40       4.86879  1_455   S
    Zr39   O41       2.01957      .   S
    N13    O41       4.76995      .   S
    Zr39   O42       1.68163      .   S
    N5     O42       4.03523      .   S
    Zr39   O43       1.97621      .   S
    N7     O43       4.69120  1_455   S
    Zr39   O44       1.79321      .   S
    N5     O44       3.89216      .   S
    Zr39   O45       1.92106      .   S
    N6     O45       4.63010      .   S
    Zr39   O46       1.68302      .   S
    N0     O46       4.07108  1_556   S
    Zr47   O48       0.83647      .   S
    N13    O48       1.69693      .   S
    Zr47   O49       0.82451      .   S
    N13    O49       1.71390      .   S
    Zr47   O50       1.85756      .   S
    N4     O50       4.23544      .   S
    Zr47   O51       0.74653      .   S
    N13    O51       1.82622      .   S
    Zr47   O52       0.74203      .   S
    N13    O52       1.83287      .   S
    Zr47   O53       1.90593      .   S
    N5     O53       4.33672      .   S
    Zr54   O55       2.01660      .   S
    N15    O55       4.76459      .   S
    Zr54   O56       1.97500      .   S
    N13    O56       4.68875      .   S
    Zr54   O57       1.68669      .   S
    N8     O57       4.07687  1_545   S
    Zr54   O58       2.03706      .   S
    N14    O58       4.86359      .   S
    Zr54   O59       1.79280      .   S
    N1     O59       3.89143      .   S
    Zr54   O60       1.68149      .   S
    N1     O60       4.03432      .   S
    Zr54   O61       1.91986      .   S
    N12    O61       4.62775      .   S
    Zr62   O63       1.85758      .   S
    N14    O63       4.23550      .   S
    Zr62   O64       1.90597      .   S
    N15    O64       4.33684  1_455   S
    Zr62   O65       0.83646      .   S
    N0     O65       1.69664      .   S
    Zr62   O66       0.74198      .   S
    N0     O66       1.83268      .   S
    Zr62   O67       0.82435      .   S
    N0     O67       1.71380      .   S
    Zr62   O68       0.74648      .   S
    N0     O68       1.82600      .   S
    Zr69   O70       0.83649      .   S
    N12    O70       1.69691      .   S
    Zr69   O71       0.74204      .   S
    N12    O71       1.83287      .   S
    Zr69   O72       1.90595      .   S
    N4     O72       4.33675      .   S
    Zr69   O73       0.74653      .   S
    N12    O73       1.82623      .   S
    Zr69   O74       0.82450      .   S
    N12    O74       1.71392      .   S
    Zr69   O75       1.85756      .   S
    N5     O75       4.23547  1_655   S
    Zr76   O77       1.85755      .   S
    N9     O77       4.23542  1_655   S
    Zr76   O78       1.90591      .   S
    N8     O78       4.33668      .   S
    Zr76   O79       0.82456      .   S
    N11    O79       1.71397      .   S
    Zr76   O80       0.74207      .   S
    N11    O80       1.83297      .   S
    Zr76   O81       0.74656      .   S
    N11    O81       1.82634      .   S
    Zr76   O82       0.83650      .   S
    N11    O82       1.69694      .   S
    Zr83   O84       1.91981      .   S
    N15    O84       4.62766      .   S
    Zr83   O85       1.68666      .   S
    N2     O85       4.07685  1_554   S
    Zr83   O86       2.01665      .   S
    N11    O86       4.76475      .   S
    Zr83   O87       1.97499      .   S
    N14    O87       4.68869      .   S
    Zr83   O88       1.68163      .   S
    N8     O88       4.03471      .   S
    Zr83   O89       1.79293      .   S
    N8     O89       3.89183      .   S
    Zr83   O90       2.03710      .   S
    N10    O90       4.86368      .   S
    Zr91   O92       2.01658      .   S
    N2     O92       4.76455      .   S
    Zr91   O93       2.03712      .   S
    N3     O93       4.86374      .   S
    Zr91   O94       1.79297      .   S
    N6     O94       3.89191      .   S
    Zr91   O95       1.91983      .   S
    N4     O95       4.62773  1_565   S
    Zr91   O96       1.68671      .   S
    N10    O96       4.07702      .   S
    Zr91   O97       1.97497      .   S
    N5     O97       4.68864  1_565   S
    Zr91   O98       1.68166      .   S
    N6     O98       4.03480      .   S
    Zr99   O100      1.79296      .   S
    N15    O100      3.89189      .   S
    Zr99   O101      1.91971      .   S
    N9     O101      4.62738  1_645   S
    Zr99   O102      1.97499      .   S
    N8     O102      4.68863  1_545   S
    Zr99   O103      1.68166      .   S
    N15    O103      4.03477      .   S
    Zr99   O104      2.03701      .   S
    N1     O104      4.86340      .   S
    Zr99   O105      1.68690      .   S
    N12    O105      4.07699      .   S
    Zr99   O106      2.01651      .   S
    N0     O106      4.76424  1_655   S
    Zr107  O108      1.79295      .   S
    N9     O108      3.89186      .   S
    Zr107  O109      1.68653      .   S
    N3     O109      4.07691  1_554   S
    Zr107  O110      1.91978      .   S
    N14    O110      4.62759      .   S
    Zr107  O111      2.03717      .   S
    N11    O111      4.86387  1_455   S
    Zr107  O112      1.68166      .   S
    N9     O112      4.03462      .   S
    Zr107  O113      2.01661      .   S
    N10    O113      4.76465      .   S
    Zr107  O114      1.97507      .   S
    N15    O114      4.68880  1_455   S
    Zr115  O116      0.74204      .   S
    N14    O116      1.83288      .   S
    Zr115  O117      0.83645      .   S
    N14    O117      1.69697      .   S
    Zr115  O118      0.74653      .   S
    N14    O118      1.82624      .   S
    Zr115  O119      0.82452      .   S
    N14    O119      1.71390      .   S
    Zr115  O120      1.85753      .   S
    N1     O120      4.23537      .   S
    Zr115  O121      1.90589      .   S
    N0     O121      4.33658      .   S
    Zr122  O123      1.79287      .   S
    N4     O123      3.89163      .   S
    Zr122  O124      1.97494      .   S
    N6     O124      4.68853      .   S
    Zr122  O125      1.68158      .   S
    N4     O125      4.03450      .   S
    Zr122  O126      2.03703      .   S
    N13    O126      4.86354      .   S
    Zr122  O127      1.68682      .   S
    N1     O127      4.07725  1_556   S
    Zr122  O128      2.01655      .   S
    N12    O128      4.76445      .   S
    Zr122  O129      1.91976      .   S
    N7     O129      4.62753      .   S
    Zr130  O131      0.74642      .   S
    N9     O131      1.82595      .   S
    Zr130  O132      0.82439      .   S
    N9     O132      1.71362      .   S
    Zr130  O133      0.83637      .   S
    N9     O133      1.69667      .   S
    Zr130  O134      0.74198      .   S
    N9     O134      1.83257      .   S
    Zr130  O135      1.90601      .   S
    N11    O135      4.33695  1_455   S
    Zr130  O136      1.85759      .   S
    N10    O136      4.23551      .   S
    Zr137  O138      1.79242      .   S
    N3     O138      3.89097      .   S
    Zr137  O139      1.68116      .   S
    N3     O139      4.03382      .   S
    Zr137  O140      1.97530      .   S
    N11    O140      4.68937  1_455   S
    Zr137  O141      1.68648      .   S
    N5     O141      4.07659  1_565   S
    Zr137  O142      2.03706      .   S
    N7     O142      4.86366  1_455   S
    Zr137  O143      1.92018      .   S
    N10    O143      4.62813      .   S
    Zr137  O144      2.01651      .   S
    N6     O144      4.76445      .   S
    Zr145  O146      1.90592      .   S
    N13    O146      4.33671      .   S
    Zr145  O147      1.85759      .   S
    N12    O147      4.23552      .   S
    Zr145  O148      0.82444      .   S
    N4     O148      1.71394      .   S
    Zr145  O149      0.74653      .   S
    N4     O149      1.82620      .   S
    Zr145  O150      0.74202      .   S
    N4     O150      1.83286      .   S
    Zr145  O151      0.83648      .   S
    N4     O151      1.69689      .   S
    Zr152  O153      1.90588      .   S
    N9     O153      4.33656      .   S
    Zr152  O154      1.85758      .   S
    N8     O154      4.23547      .   S
    Zr152  O155      0.74206      .   S
    N10    O155      1.83293      .   S
    Zr152  O156      0.82455      .   S
    N10    O156      1.71395      .   S
    Zr152  O157      0.83648      .   S
    N10    O157      1.69701      .   S
    Zr152  O158      0.74654      .   S
    N10    O158      1.82630      .   S
    Zr159  O160      0.74204      .   S
    N2     O160      1.83289      .   S
    Zr159  O161      0.83648      .   S
    N2     O161      1.69696      .   S
    Zr159  O162      0.74653      .   S
    N2     O162      1.82625      .   S
    Zr159  O163      0.82448      .   S
    N2     O163      1.71393      .   S
    Zr159  O164      1.90589      .   S
    N6     O164      4.33662      .   S
    Zr159  O165      1.85754      .   S
    N7     O165      4.23536      .   S
    Zr166  O167      1.79291      .   S
    N2     O167      3.89176      .   S
    Zr166  O168      1.68675      .   S
    N4     O168      4.07707  1_565   S
    Zr166  O169      1.68160      .   S
    N2     O169      4.03466      .   S
    Zr166  O170      2.03711      .   S
    N6     O170      4.86368      .   S
    Zr166  O171      1.97499      .   S
    N10    O171      4.68870      .   S
    Zr166  O172      1.91979      .   S
    N11    O172      4.62759      .   S
    Zr166  O173      2.01660      .   S
    N7     O173      4.76463      .   S
    Zr174  O175      1.79290      .   S
    N12    O175      3.89173      .   S
    Zr174  O176      2.03704      .   S
    N4     O176      4.86349      .   S
    Zr174  O177      2.01655      .   S
    N5     O177      4.76439  1_655   S
    Zr174  O178      1.97504      .   S
    N1     O178      4.68882  1_556   S
    Zr174  O179      1.68161      .   S
    N12    O179      4.03461      .   S
    Zr174  O180      1.68669      .   S
    N7     O180      4.07691      .   S
    Zr174  O181      1.91990      .   S
    N0     O181      4.62788  1_656   S
    Zr182  O183      0.74653      .   S
    N8     O183      1.82618      .   S
    Zr182  O184      0.82447      .   S
    N8     O184      1.71388      .   S
    Zr182  O185      0.74201      .   S
    N8     O185      1.83284      .   S
    Zr182  O186      1.85763      .   S
    N11    O186      4.23559      .   S
    Zr182  O187      0.83644      .   S
    N8     O187      1.69692      .   S
    Zr182  O188      1.90594      .   S
    N10    O188      4.33676      .   S
    Zr189  O190      0.74653      .   S
    N3     O190      1.82630      .   S
    Zr189  O191      0.74208      .   S
    N3     O191      1.83292      .   S
    Zr189  O192      0.82450      .   S
    N3     O192      1.71397      .   S
    Zr189  O193      0.83649      .   S
    N3     O193      1.69700      .   S
    Zr189  O194      1.90593      .   S
    N7     O194      4.33674  1_455   S
    Zr189  O195      1.85753      .   S
    N6     O195      4.23533      .   S
    Zr196  O197      1.90595      .   S
    N3     O197      4.33679      .   S
    Zr196  O198      0.83637      .   S
    N6     O198      1.69677      .   S
    Zr196  O199      1.85759      .   S
    N2     O199      4.23550      .   S
    Zr196  O200      0.74645      .   S
    N6     O200      1.82603      .   S
    Zr196  O201      0.82447      .   S
    N6     O201      1.71366      .   S
    Zr196  O202      0.74198      .   S
    N6     O202      1.83265      .   S
    Zr203  O204      1.97494      .   S
    N4     O204      4.68857  1_565   S
    Zr203  O205      2.01663      .   S
    N3     O205      4.76455  1_655   S
    Zr203  O206      2.03704      .   S
    N2     O206      4.86356      .   S
    Zr203  O207      1.68667      .   S
    N11    O207      4.07714      .   S
    Zr203  O208      1.91983      .   S
    N5     O208      4.62776  1_665   S
    Zr203  O209      1.68166      .   S
    N7     O209      4.03479      .   S
    Zr203  O210      1.79296      .   S
    N7     O210      3.89191      .   S
    Zr211  O212      1.92020      .   S
    N2     O212      4.62814  1_554   S
    Zr211  O213      2.03698      .   S
    N9     O213      4.86347      .   S
    Zr211  O214      1.97522      .   S
    N3     O214      4.68924  1_554   S
    Zr211  O215      1.68645      .   S
    N14    O215      4.07655      .   S
    Zr211  O216      2.01649      .   S
    N8     O216      4.76438      .   S
    Zr211  O217      1.68105      .   S
    N10    O217      4.03378      .   S
    Zr211  O218      1.79236      .   S
    N10    O218      3.89088      .   S
    Zr219  O220      1.68665      .   S
    N9     O220      4.07678  1_545   S
    Zr219  O221      2.03713      .   S
    N15    O221      4.86376  1_455   S
    Zr219  O222      2.01659      .   S
    N14    O222      4.76459      .   S
    Zr219  O223      1.91979      .   S
    N13    O223      4.62763      .   S
    Zr219  O224      1.97513      .   S
    N12    O224      4.68867  1_455   S
    Zr219  O225      1.79281      .   S
    N0     O225      3.89136      .   S
    Zr219  O226      1.68150      .   S
    N0     O226      4.03426      .   S
    Zr227  O228      1.79324      .   S
    N11    O228      3.89187      .   S
    Zr227  O229      1.97490      .   S
    N2     O229      4.68846  1_554   S
    Zr227  O230      1.68173      .   S
    N11    O230      4.03496      .   S
    Zr227  O231      2.01683      .   S
    N9     O231      4.76445  1_655   S
    Zr227  O232      1.68679      .   S
    N15    O232      4.07714      .   S
    Zr227  O233      1.91972      .   S
    N3     O233      4.62749  1_654   S
    Zr227  O234      2.03707      .   S
    N8     O234      4.86357      .   S
    Zr235  O236      1.85763      .   S
    N3     O236      4.23562  1_655   S
    Zr235  O237      1.90593      .   S
    N2     O237      4.33673      .   S
    Zr235  O238      0.82447      .   S
    N7     O238      1.71366      .   S
    Zr235  O239      0.83637      .   S
    N7     O239      1.69678      .   S
    Zr235  O240      0.74647      .   S
    N7     O240      1.82603      .   S
    Zr235  O241      0.74198      .   S
    N7     O241      1.83266      .   S
    Zr242  O243      1.90596      .   S
    N12    O243      4.33681  1_455   S
    Zr242  O244      1.85758      .   S
    N13    O244      4.23547      .   S
    Zr242  O245      0.82443      .   S
    N5     O245      1.71390      .   S
    Zr242  O246      0.74204      .   S
    N5     O246      1.83281      .   S
    Zr242  O247      0.74651      .   S
    N5     O247      1.82617      .   S
    Zr242  O248      0.83646      .   S
    N5     O248      1.69686      .   S
    Zr249  O250      0.74655      .   S
    N15    O250      1.82627      .   S
    Zr249  O251      0.82450      .   S
    N15    O251      1.71396      .   S
    Zr249  O252      0.83649      .   S
    N15    O252      1.69697      .   S
    Zr249  O253      0.74204      .   S
    N15    O253      1.83291      .   S
    Zr249  O254      1.90591      .   S
    N1     O254      4.33664      .   S
    Zr249  O255      1.85752      .   S
    N0     O255      4.23537  1_655   S
