# CIF file generated by openbabel 2.4.90, see http://openbabel.sf.net
data_I
_chemical_name_common ''
_cell_length_a 14.594
_cell_length_b 16.877
_cell_length_c 17.459
_cell_angle_alpha 90.002
_cell_angle_beta 95.55
_cell_angle_gamma 90.028
_space_group_name_H-M_alt 'P 1'
_space_group_name_Hall 'P 1'
loop_
    _symmetry_equiv_pos_as_xyz
    x,y,z
loop_
    _atom_site_label
    _atom_site_type_symbol
    _atom_site_fract_x
    _atom_site_fract_y
    _atom_site_fract_z
    _atom_site_occupancy
    C0      C    0.47277   0.79835   0.31263   1.000
    C1      C    0.97276   0.79835   0.31263   1.000
    C2      C    0.27719   0.29840   0.18727   1.000
    C3      C    0.77717   0.29840   0.18727   1.000
    C4      C    0.02722   0.20162   0.68730   1.000
    C5      C    0.52721   0.20162   0.68730   1.000
    C6      C    0.22281   0.70157   0.81274   1.000
    C7      C    0.72279   0.70156   0.81274   1.000
    C8      C    0.29831   0.93136   0.42296   1.000
    C9      C    0.79830   0.93136   0.42296   1.000
    C10     C    0.46646   0.93384   0.44324   1.000
    C11     C    0.96644   0.93385   0.44324   1.000
    C12     C    0.40511   0.02334   0.46046   1.000
    C13     C    0.90509   0.02335   0.46046   1.000
    C14     C    0.11538   0.67273   0.42405   1.000
    C15     C    0.61537   0.67273   0.42405   1.000
    C16     C    0.12800   0.66252   0.32549   1.000
    C17     C    0.62799   0.66252   0.32549   1.000
    C18     C    0.10759   0.79206   0.53877   1.000
    C19     C    0.60758   0.79206   0.53877   1.000
    C20     C    0.36571   0.86193   0.65995   1.000
    C21     C    0.86570   0.86194   0.65995   1.000
    C22     C    0.22317   0.48545   0.18817   1.000
    C23     C    0.72315   0.48545   0.18817   1.000
    C24     C    0.20253   0.52578   0.35521   1.000
    C25     C    0.70252   0.52578   0.35521   1.000
    C26     C    0.17552   0.53668   0.45128   1.000
    C27     C    0.67550   0.53668   0.45128   1.000
    C28     C    0.44699   0.73162   0.48344   1.000
    C29     C    0.94698   0.73162   0.48344   1.000
    C30     C    0.28525   0.65648   0.51600   1.000
    C31     C    0.78524   0.65648   0.51600   1.000
    C32     C    0.26759   0.71754   0.27954   1.000
    C33     C    0.76757   0.71754   0.27954   1.000
    C34     C    0.00510   0.55276   0.39890   1.000
    C35     C    0.50508   0.55276   0.39890   1.000
    C36     C    0.05356   0.45791   0.38740   1.000
    C37     C    0.55355   0.45791   0.38740   1.000
    C38     C    0.08039   0.49154   0.25075   1.000
    C39     C    0.58038   0.49154   0.25075   1.000
    C40     C    0.02967   0.58614   0.26167   1.000
    C41     C    0.52966   0.58614   0.26167   1.000
    C42     C    0.46963   0.36654   0.26396   1.000
    C43     C    0.96962   0.36654   0.26396   1.000
    C44     C    0.35944   0.59754   0.23130   1.000
    C45     C    0.85942   0.59754   0.23130   1.000
    C46     C    0.45160   0.43133   0.07711   1.000
    C47     C    0.95158   0.43132   0.07711   1.000
    C48     C    0.28331   0.43381   0.05676   1.000
    C49     C    0.78330   0.43382   0.05676   1.000
    C50     C    0.34488   0.52327   0.03960   1.000
    C51     C    0.84486   0.52327   0.03965   1.000
    C52     C    0.13461   0.17270   0.07697   1.000
    C53     C    0.63461   0.17271   0.07690   1.000
    C54     C    0.12132   0.16213   0.17537   1.000
    C55     C    0.62131   0.16213   0.17537   1.000
    C56     C    0.14208   0.29191   0.96129   1.000
    C57     C    0.64207   0.29191   0.96129   1.000
    C58     C    0.38407   0.36192   0.84010   1.000
    C59     C    0.88405   0.36192   0.84013   1.000
    C60     C    0.02674   0.98551   0.31201   1.000
    C61     C    0.52673   0.98551   0.31201   1.000
    C62     C    0.04730   0.02540   0.14519   1.000
    C63     C    0.54729   0.02540   0.14519   1.000
    C64     C    0.07405   0.03669   0.04908   1.000
    C65     C    0.57403   0.03669   0.04908   1.000
    C66     C    0.30304   0.23118   0.01634   1.000
    C67     C    0.80303   0.23117   0.01634   1.000
    C68     C    0.46477   0.15573   0.98438   1.000
    C69     C    0.96475   0.15573   0.98438   1.000
    C70     C    0.48180   0.21771   0.22064   1.000
    C71     C    0.98178   0.21771   0.22064   1.000
    C72     C    0.24455   0.05297   0.10118   1.000
    C73     C    0.74454   0.05297   0.10118   1.000
    C74     C    0.19628   0.95792   0.11242   1.000
    C75     C    0.69627   0.95793   0.11242   1.000
    C76     C    0.16964   0.99097   0.24920   1.000
    C77     C    0.66963   0.99097   0.24928   1.000
    C78     C    0.22019   0.08573   0.23863   1.000
    C79     C    0.72018   0.08573   0.23863   1.000
    C80     C    0.28061   0.86625   0.23551   1.000
    C81     C    0.78060   0.86625   0.23550   1.000
    C82     C    0.39035   0.09743   0.26899   1.000
    C83     C    0.89034   0.09743   0.26899   1.000
    C84     C    0.20169   0.06860   0.57705   1.000
    C85     C    0.70167   0.06860   0.57705   1.000
    C86     C    0.03354   0.06611   0.55678   1.000
    C87     C    0.53353   0.06611   0.55677   1.000
    C88     C    0.09489   0.97661   0.53955   1.000
    C89     C    0.59488   0.97661   0.53955   1.000
    C90     C    0.38462   0.32722   0.57597   1.000
    C91     C    0.88460   0.32722   0.57597   1.000
    C92     C    0.37200   0.33744   0.67453   1.000
    C93     C    0.87198   0.33744   0.67453   1.000
    C94     C    0.39241   0.20790   0.46124   1.000
    C95     C    0.89239   0.20790   0.46124   1.000
    C96     C    0.13428   0.13804   0.34007   1.000
    C97     C    0.63428   0.13801   0.34006   1.000
    C98     C    0.27683   0.51451   0.81180   1.000
    C99     C    0.77682   0.51451   0.81184   1.000
    C100    C    0.29746   0.47418   0.64481   1.000
    C101    C    0.79745   0.47418   0.64481   1.000
    C102    C    0.32448   0.46328   0.54874   1.000
    C103    C    0.82447   0.46328   0.54874   1.000
    C104    C    0.05300   0.26834   0.51658   1.000
    C105    C    0.55299   0.26834   0.51658   1.000
    C106    C    0.21475   0.34347   0.48397   1.000
    C107    C    0.71473   0.34347   0.48397   1.000
    C108    C    0.23241   0.28242   0.72047   1.000
    C109    C    0.73240   0.28242   0.72047   1.000
    C110    C    0.49490   0.44719   0.60105   1.000
    C111    C    0.99489   0.44719   0.60105   1.000
    C112    C    0.44643   0.54205   0.61259   1.000
    C113    C    0.94642   0.54205   0.61259   1.000
    C114    C    0.41961   0.50842   0.74927   1.000
    C115    C    0.91960   0.50842   0.74927   1.000
    C116    C    0.47032   0.41381   0.73835   1.000
    C117    C    0.97031   0.41381   0.73835   1.000
    C118    C    0.03036   0.63342   0.73606   1.000
    C119    C    0.53035   0.63342   0.73606   1.000
    C120    C    0.14056   0.40242   0.76870   1.000
    C121    C    0.64055   0.40242   0.76870   1.000
    C122    C    0.04839   0.56862   0.92291   1.000
    C123    C    0.54838   0.56862   0.92291   1.000
    C124    C    0.21668   0.56614   0.94326   1.000
    C125    C    0.71667   0.56614   0.94326   1.000
    C126    C    0.15511   0.47668   0.96036   1.000
    C127    C    0.65510   0.47668   0.96036   1.000
    C128    C    0.36538   0.82725   0.92305   1.000
    C129    C    0.86536   0.82725   0.92305   1.000
    C130    C    0.37867   0.83783   0.82464   1.000
    C131    C    0.87866   0.83783   0.82460   1.000
    C132    C    0.35791   0.70805   0.03872   1.000
    C133    C    0.85790   0.70805   0.03872   1.000
    C134    C    0.11592   0.63803   0.15988   1.000
    C135    C    0.61591   0.63804   0.15988   1.000
    C136    C    0.47325   0.01445   0.68801   1.000
    C137    C    0.97324   0.01445   0.68801   1.000
    C138    C    0.45269   0.97455   0.85483   1.000
    C139    C    0.95268   0.97455   0.85483   1.000
    C140    C    0.42595   0.96326   0.95094   1.000
    C141    C    0.92593   0.96326   0.95094   1.000
    C142    C    0.19695   0.76878   0.98360   1.000
    C143    C    0.69694   0.76878   0.98360   1.000
    C144    C    0.03523   0.84422   0.01564   1.000
    C145    C    0.53521   0.84422   0.01564   1.000
    C146    C    0.01820   0.78224   0.77938   1.000
    C147    C    0.51818   0.78224   0.77938   1.000
    C148    C    0.25544   0.94698   0.89884   1.000
    C149    C    0.75543   0.94698   0.89884   1.000
    C150    C    0.30371   0.04203   0.88760   1.000
    C151    C    0.80370   0.04203   0.88760   1.000
    C152    C    0.33035   0.00000   0.75073   1.000
    C153    C    0.83034   0.00000   0.75073   1.000
    C154    C    0.27980   0.91423   0.76139   1.000
    C155    C    0.77979   0.91423   0.76139   1.000
    C156    C    0.21938   0.13371   0.76451   1.000
    C157    C    0.71937   0.13371   0.76451   1.000
    C158    C    0.10964   0.90253   0.73103   1.000
    C159    C    0.60963   0.90253   0.73103   1.000
    C160    C    0.28180   0.90169   0.47517   1.000
    C161    C    0.78178   0.90169   0.47517   1.000
    C162    C    0.34072   0.90365   0.54333   1.000
    C163    C    0.84071   0.90366   0.54333   1.000
    C164    C    0.45502   0.97966   0.48608   1.000
    C165    C    0.95500   0.97967   0.48608   1.000
    C166    C    0.15661   0.64333   0.38290   1.000
    C167    C    0.65660   0.64333   0.38290   1.000
    C168    C    0.17337   0.82233   0.53941   1.000
    C169    C    0.67336   0.82232   0.53941   1.000
    C170    C    0.31741   0.86257   0.60843   1.000
    C171    C    0.81740   0.86257   0.60843   1.000
    C172    C    0.19825   0.86014   0.47328   1.000
    C173    C    0.69823   0.86014   0.47328   1.000
    C174    C    0.13595   0.85616   0.39924   1.000
    C175    C    0.63594   0.85617   0.39924   1.000
    C176    C    0.29382   0.47801   0.21236   1.000
    C177    C    0.79381   0.47801   0.21236   1.000
    C178    C    0.23337   0.82284   0.60710   1.000
    C179    C    0.73335   0.82284   0.60710   1.000
    C180    C    0.15328   0.55312   0.39132   1.000
    C181    C    0.65327   0.55312   0.39132   1.000
    C182    C    0.20641   0.78031   0.67713   1.000
    C183    C    0.70640   0.78031   0.67713   1.000
    C184    C    0.38641   0.71563   0.44582   1.000
    C185    C    0.88640   0.71563   0.44582   1.000
    C186    C    0.30717   0.67833   0.46245   1.000
    C187    C    0.80716   0.67833   0.46245   1.000
    C188    C    0.29551   0.71079   0.33898   1.000
    C189    C    0.79550   0.71079   0.33898   1.000
    C190    C    0.05631   0.52010   0.36881   1.000
    C191    C    0.55630   0.52010   0.36881   1.000
    C192    C    0.03068   0.52459   0.28170   1.000
    C193    C    0.53067   0.52459   0.28170   1.000
    C194    C    0.41982   0.41317   0.25063   1.000
    C195    C    0.91981   0.41317   0.25063   1.000
    C196    C    0.36031   0.53341   0.23330   1.000
    C197    C    0.86030   0.53341   0.23330   1.000
    C198    C    0.46806   0.40162   0.02490   1.000
    C199    C    0.96805   0.40163   0.02490   1.000
    C200    C    0.40914   0.40359   0.95676   1.000
    C201    C    0.90913   0.40360   0.95676   1.000
    C202    C    0.29491   0.47965   0.01396   1.000
    C203    C    0.79490   0.47965   0.01396   1.000
    C204    C    0.09307   0.14312   0.11776   1.000
    C205    C    0.59306   0.14312   0.11776   1.000
    C206    C    0.07635   0.32220   0.96065   1.000
    C207    C    0.57634   0.32220   0.96066   1.000
    C208    C    0.43236   0.36251   0.89165   1.000
    C209    C    0.93236   0.36251   0.89165   1.000
    C210    C    0.05156   0.36005   0.02678   1.000
    C211    C    0.55155   0.36006   0.02678   1.000
    C212    C    0.11393   0.35613   0.10078   1.000
    C213    C    0.61392   0.35614   0.10070   1.000
    C214    C    0.45612   0.97797   0.28771   1.000
    C215    C    0.95611   0.97797   0.28771   1.000
    C216    C    0.01635   0.32274   0.89297   1.000
    C217    C    0.51634   0.32275   0.89297   1.000
    C218    C    0.09642   0.05296   0.10906   1.000
    C219    C    0.59641   0.05296   0.10906   1.000
    C220    C    0.04324   0.28029   0.82290   1.000
    C221    C    0.54323   0.28029   0.82290   1.000
    C222    C    0.36350   0.21530   0.05414   1.000
    C223    C    0.86349   0.21530   0.05414   1.000
    C224    C    0.44274   0.17787   0.03781   1.000
    C225    C    0.94273   0.17786   0.03781   1.000
    C226    C    0.45410   0.21078   0.16110   1.000
    C227    C    0.95408   0.21078   0.16116   1.000
    C228    C    0.19347   0.02005   0.13129   1.000
    C229    C    0.69346   0.02005   0.13129   1.000
    C230    C    0.21924   0.02425   0.21834   1.000
    C231    C    0.71923   0.02425   0.21834   1.000
    C232    C    0.33029   0.91297   0.24908   1.000
    C233    C    0.83028   0.91297   0.24900   1.000
    C234    C    0.38957   0.03331   0.26684   1.000
    C235    C    0.88955   0.03331   0.26684   1.000
    C236    C    0.21821   0.09827   0.52484   1.000
    C237    C    0.71819   0.09827   0.52484   1.000
    C238    C    0.15928   0.09630   0.45668   1.000
    C239    C    0.65927   0.09630   0.45668   1.000
    C240    C    0.04498   0.02029   0.51393   1.000
    C241    C    0.54497   0.02029   0.51393   1.000
    C242    C    0.34339   0.35662   0.61708   1.000
    C243    C    0.84337   0.35662   0.61708   1.000
    C244    C    0.32663   0.17763   0.46059   1.000
    C245    C    0.82661   0.17764   0.46060   1.000
    C246    C    0.18258   0.13739   0.39158   1.000
    C247    C    0.68257   0.13739   0.39158   1.000
    C248    C    0.30175   0.13982   0.52673   1.000
    C249    C    0.80174   0.13982   0.52673   1.000
    C250    C    0.36404   0.14380   0.60070   1.000
    C251    C    0.86403   0.14380   0.60070   1.000
    C252    C    0.20617   0.52195   0.78766   1.000
    C253    C    0.70616   0.52195   0.78766   1.000
    C254    C    0.26663   0.17713   0.39291   1.000
    C255    C    0.76662   0.17712   0.39291   1.000
    C256    C    0.34671   0.44683   0.60869   1.000
    C257    C    0.84670   0.44683   0.60869   1.000
    C258    C    0.29357   0.21966   0.32288   1.000
    C259    C    0.79356   0.21965   0.32288   1.000
    C260    C    0.11359   0.28433   0.55419   1.000
    C261    C    0.61358   0.28433   0.55419   1.000
    C262    C    0.19283   0.32162   0.53757   1.000
    C263    C    0.69281   0.32162   0.53757   1.000
    C264    C    0.20449   0.28917   0.66103   1.000
    C265    C    0.70447   0.28917   0.66103   1.000
    C266    C    0.44368   0.47985   0.63121   1.000
    C267    C    0.94367   0.47985   0.63121   1.000
    C268    C    0.46932   0.47537   0.71827   1.000
    C269    C    0.96931   0.47537   0.71827   1.000
    C270    C    0.08017   0.58679   0.74938   1.000
    C271    C    0.58016   0.58679   0.74938   1.000
    C272    C    0.13968   0.46655   0.76672   1.000
    C273    C    0.63967   0.46655   0.76672   1.000
    C274    C    0.03193   0.59833   0.97511   1.000
    C275    C    0.53192   0.59833   0.97511   1.000
    C276    C    0.09085   0.59636   0.04326   1.000
    C277    C    0.59084   0.59636   0.04320   1.000
    C278    C    0.20508   0.52030   0.98606   1.000
    C279    C    0.70507   0.52031   0.98606   1.000
    C280    C    0.40692   0.85683   0.88226   1.000
    C281    C    0.90691   0.85683   0.88226   1.000
    C282    C    0.42364   0.67776   0.03936   1.000
    C283    C    0.92363   0.67776   0.03936   1.000
    C284    C    0.06762   0.63745   0.10837   1.000
    C285    C    0.56761   0.63745   0.10830   1.000
    C286    C    0.44843   0.63990   0.97324   1.000
    C287    C    0.94841   0.63990   0.97324   1.000
    C288    C    0.38606   0.64382   0.89923   1.000
    C289    C    0.88605   0.64382   0.89923   1.000
    C290    C    0.04387   0.02199   0.71231   1.000
    C291    C    0.54386   0.02199   0.71231   1.000
    C292    C    0.48364   0.67722   0.10704   1.000
    C293    C    0.98363   0.67721   0.10704   1.000
    C294    C    0.40357   0.94700   0.89090   1.000
    C295    C    0.90356   0.94700   0.89090   1.000
    C296    C    0.45675   0.71968   0.17711   1.000
    C297    C    0.95674   0.71968   0.17711   1.000
    C298    C    0.13649   0.78465   0.94588   1.000
    C299    C    0.63648   0.78465   0.94588   1.000
    C300    C    0.05725   0.82209   0.96220   1.000
    C301    C    0.55724   0.82209   0.96220   1.000
    C302    C    0.04589   0.78917   0.83886   1.000
    C303    C    0.54588   0.78917   0.83886   1.000
    C304    C    0.30652   0.97990   0.86873   1.000
    C305    C    0.80651   0.97990   0.86873   1.000
    C306    C    0.28075   0.97571   0.78160   1.000
    C307    C    0.78074   0.97571   0.78160   1.000
    C308    C    0.16970   0.08699   0.75094   1.000
    C309    C    0.66969   0.08699   0.75094   1.000
    C310    C    0.11043   0.96666   0.73318   1.000
    C311    C    0.61041   0.96666   0.73318   1.000
    C312    C    0.25015   0.67571   0.39423   1.000
    C313    C    0.75013   0.67571   0.39423   1.000
    C314    C    0.37852   0.73540   0.36840   1.000
    C315    C    0.87851   0.73540   0.36840   1.000
    C316    C    0.33182   0.40306   0.22355   1.000
    C317    C    0.83181   0.40306   0.22355   1.000
    C318    C    0.43964   0.49145   0.25747   1.000
    C319    C    0.93963   0.49145   0.25747   1.000
    C320    C    0.49957   0.17545   0.10615   1.000
    C321    C    0.99955   0.17545   0.10615   1.000
    C322    C    0.37121   0.23536   0.13149   1.000
    C323    C    0.87120   0.23536   0.13149   1.000
    C324    C    0.41826   0.90297   0.27626   1.000
    C325    C    0.91825   0.90297   0.27626   1.000
    C326    C    0.31034   0.99122   0.24244   1.000
    C327    C    0.81033   0.99122   0.24244   1.000
    C328    C    0.24985   0.32424   0.60579   1.000
    C329    C    0.74984   0.32424   0.60579   1.000
    C330    C    0.12148   0.26456   0.63161   1.000
    C331    C    0.62146   0.26456   0.63161   1.000
    C332    C    0.16818   0.59690   0.77647   1.000
    C333    C    0.66817   0.59690   0.77647   1.000
    C334    C    0.06035   0.50851   0.74254   1.000
    C335    C    0.56034   0.50851   0.74254   1.000
    C336    C    0.00043   0.82450   0.89387   1.000
    C337    C    0.50041   0.82450   0.89387   1.000
    C338    C    0.12878   0.76460   0.86850   1.000
    C339    C    0.62877   0.76460   0.86850   1.000
    C340    C    0.08173   0.09699   0.72375   1.000
    C341    C    0.58172   0.09699   0.72375   1.000
    C342    C    0.18965   0.00874   0.75758   1.000
    C343    C    0.68964   0.00874   0.75758   1.000
    C344    C    0.06260   0.81273   0.40343   1.000
    C345    C    0.56259   0.81273   0.40340   1.000
    C346    C    0.42259   0.94368   0.55283   1.000
    C347    C    0.92257   0.94369   0.55283   1.000
    C348    C    0.12533   0.75697   0.68001   1.000
    C349    C    0.62532   0.75696   0.68001   1.000
    C350    C    0.15579   0.89174   0.34039   1.000
    C351    C    0.65578   0.89174   0.34039   1.000
    C352    C    0.27169   0.77056   0.73304   1.000
    C353    C    0.77168   0.77056   0.73304   1.000
    C354    C    0.18725   0.31272   0.09657   1.000
    C355    C    0.68724   0.31271   0.09657   1.000
    C356    C    0.32735   0.44367   0.94724   1.000
    C357    C    0.82733   0.44366   0.94724   1.000
    C358    C    0.12432   0.25700   0.81997   1.000
    C359    C    0.62431   0.25700   0.81997   1.000
    C360    C    0.09419   0.39176   0.15963   1.000
    C361    C    0.59417   0.39176   0.15963   1.000
    C362    C    0.47793   0.27054   0.76698   1.000
    C363    C    0.97792   0.27054   0.76698   1.000
    C364    C    0.43740   0.18724   0.59658   1.000
    C365    C    0.93738   0.18724   0.59658   1.000
    C366    C    0.07740   0.05629   0.44718   1.000
    C367    C    0.57740   0.05627   0.44718   1.000
    C368    C    0.37466   0.24300   0.30000   1.000
    C369    C    0.87464   0.24301   0.32000   1.000
    C370    C    0.34420   0.10823   0.65962   1.000
    C371    C    0.84419   0.10823   0.65962   1.000
    C372    C    0.22829   0.22941   0.26697   1.000
    C373    C    0.72828   0.22941   0.26697   1.000
    C374    C    0.31275   0.68725   0.90344   1.000
    C375    C    0.81274   0.68725   0.90344   1.000
    C376    C    0.17264   0.55628   0.05278   1.000
    C377    C    0.67263   0.55629   0.05278   1.000
    C378    C    0.37567   0.74297   0.18004   1.000
    C379    C    0.87566   0.74297   0.18004   1.000
    C380    C    0.40581   0.60821   0.84038   1.000
    C381    C    0.90580   0.60821   0.84038   1.000
    C382    C    0.02206   0.72943   0.23303   1.000
    C383    C    0.52205   0.72943   0.23303   1.000
    O384    O    0.81988   0.50146   0.02680   1.000
    O385    O    0.78910   0.45673   0.03536   1.000
    O386    O    0.81112   0.46166   0.98060   1.000
    O387    O    0.74998   0.49998   0.00001   1.000
    O388    O    0.31989   0.50146   0.02678   1.000
    O389    O    0.28911   0.45673   0.03536   1.000
    O390    O    0.31113   0.46166   0.98060   1.000
    O391    O    0.24999   0.49998   0.00001   1.000
    O392    O    0.54623   0.83315   0.98892   1.000
    O393    O    0.04624   0.83315   0.98892   1.000
    O394    O    0.83326   0.22324   0.03524   1.000
    O395    O    0.33327   0.22324   0.03524   1.000
    O396    O    0.00980   0.38084   0.02584   1.000
    O397    O    0.95982   0.41647   0.05100   1.000
    O398    O    0.93859   0.40261   0.99083   1.000
    O399    O    0.50981   0.38084   0.02584   1.000
    O400    O    0.45983   0.41648   0.05100   1.000
    O401    O    0.43860   0.40261   0.99083   1.000
    O402    O    0.58274   0.35810   0.06374   1.000
    O403    O    0.56395   0.34113   0.99372   1.000
    O404    O    0.08274   0.35809   0.06378   1.000
    O405    O    0.06396   0.34112   0.99371   1.000
    O406    O    0.90311   0.19658   0.04597   1.000
    O407    O    0.97114   0.17666   0.07198   1.000
    O408    O    0.95374   0.16680   0.01110   1.000
    O409    O    0.40312   0.19658   0.04597   1.000
    O410    O    0.47115   0.17666   0.07198   1.000
    O411    O    0.45375   0.16680   0.01110   1.000
    O412    O    0.39077   0.69290   0.03904   1.000
    O413    O    0.89076   0.69291   0.03904   1.000
    O414    O    0.45364   0.67749   0.07320   1.000
    O415    O    0.43603   0.65883   0.00630   1.000
    O416    O    0.95363   0.67749   0.07320   1.000
    O417    O    0.93602   0.65883   0.00630   1.000
    O418    O    0.63173   0.57632   0.04799   1.000
    O419    O    0.57922   0.61690   0.07575   1.000
    O420    O    0.56138   0.59734   0.00916   1.000
    O421    O    0.13174   0.57632   0.04802   1.000
    O422    O    0.07924   0.61690   0.07581   1.000
    O423    O    0.06139   0.59734   0.00918   1.000
    O424    O    0.58522   0.04483   0.07907   1.000
    O425    O    0.08523   0.04482   0.07907   1.000
    O426    O    0.18886   0.53829   0.01942   1.000
    O427    O    0.68885   0.53830   0.01942   1.000
    O428    O    0.86734   0.22533   0.09281   1.000
    O429    O    0.36736   0.22533   0.09281   1.000
    O430    O    0.61383   0.15791   0.09733   1.000
    O431    O    0.11384   0.15791   0.09736   1.000
    O432    O    0.15059   0.33443   0.09867   1.000
    O433    O    0.23222   0.30556   0.14192   1.000
    O434    O    0.65058   0.33443   0.09863   1.000
    O435    O    0.73221   0.30556   0.14192   1.000
    O436    O    0.60405   0.37395   0.13016   1.000
    O437    O    0.10406   0.37395   0.13020   1.000
    O438    O    0.21901   0.03651   0.11623   1.000
    O439    O    0.71900   0.03651   0.11623   1.000
    O440    O    0.04631   0.15928   0.11195   1.000
    O441    O    0.97682   0.19311   0.13365   1.000
    O442    O    0.54631   0.15929   0.11195   1.000
    O443    O    0.47683   0.19312   0.13362   1.000
    O444    O    0.02563   0.65733   0.10770   1.000
    O445    O    0.97018   0.69845   0.14207   1.000
    O446    O    0.52563   0.65733   0.10767   1.000
    O447    O    0.47019   0.69845   0.14207   1.000
    O448    O    0.59176   0.63774   0.13409   1.000
    O449    O    0.09177   0.63774   0.13412   1.000
    O450    O    0.59474   0.09804   0.11341   1.000
    O451    O    0.64493   0.03650   0.12017   1.000
    O452    O    0.57185   0.03918   0.12712   1.000
    O453    O    0.09475   0.09804   0.11341   1.000
    O454    O    0.14495   0.03650   0.12017   1.000
    O455    O    0.07186   0.03918   0.12712   1.000
    O456    O    0.69486   0.98899   0.12185   1.000
    O457    O    0.19488   0.98899   0.12185   1.000
    O458    O    0.60719   0.15262   0.14656   1.000
    O459    O    0.10720   0.15262   0.14656   1.000
    O460    O    0.20636   0.02215   0.17481   1.000
    O461    O    0.70634   0.02215   0.17481   1.000
    O462    O    0.41265   0.22307   0.14629   1.000
    O463    O    0.32420   0.26688   0.15938   1.000
    O464    O    0.91264   0.22307   0.14632   1.000
    O465    O    0.82419   0.26688   0.15938   1.000
    O466    O    0.46795   0.21425   0.19087   1.000
    O467    O    0.96793   0.21425   0.19090   1.000
    O468    O    0.91620   0.73132   0.17857   1.000
    O469    O    0.98940   0.72455   0.20507   1.000
    O470    O    0.41621   0.73132   0.17857   1.000
    O471    O    0.48940   0.72455   0.20507   1.000
    O472    O    0.80449   0.35073   0.20541   1.000
    O473    O    0.75273   0.26391   0.22712   1.000
    O474    O    0.30450   0.35073   0.20541   1.000
    O475    O    0.25274   0.26390   0.22712   1.000
    O476    O    0.75848   0.48173   0.20026   1.000
    O477    O    0.25849   0.48173   0.20026   1.000
    O478    O    0.31282   0.44053   0.21795   1.000
    O479    O    0.32707   0.50571   0.22283   1.000
    O480    O    0.81281   0.44053   0.21795   1.000
    O481    O    0.82706   0.50571   0.22283   1.000
    O482    O    0.21972   0.05499   0.22848   1.000
    O483    O    0.26479   0.00774   0.23039   1.000
    O484    O    0.19444   0.00761   0.23377   1.000
    O485    O    0.71970   0.05499   0.22848   1.000
    O486    O    0.76478   0.00774   0.23039   1.000
    O487    O    0.69443   0.00761   0.23381   1.000
    O488    O    0.37582   0.40812   0.23709   1.000
    O489    O    0.87581   0.40812   0.23709   1.000
    O490    O    0.35988   0.56548   0.23230   1.000
    O491    O    0.85986   0.56548   0.23230   1.000
    O492    O    0.49741   0.76389   0.27283   1.000
    O493    O    0.99741   0.76389   0.27283   1.000
    O494    O    0.39998   0.51243   0.24538   1.000
    O495    O    0.89997   0.51243   0.24538   1.000
    O496    O    0.80544   0.88961   0.24225   1.000
    O497    O    0.30545   0.88961   0.24229   1.000
    O498    O    0.32032   0.95209   0.24576   1.000
    O499    O    0.34995   0.01226   0.25464   1.000
    O500    O    0.82030   0.95209   0.24572   1.000
    O501    O    0.84994   0.01226   0.25464   1.000
    O502    O    0.87426   0.90797   0.26263   1.000
    O503    O    0.37428   0.90797   0.26267   1.000
    O504    O    0.42973   0.45231   0.25405   1.000
    O505    O    0.44473   0.38986   0.25729   1.000
    O506    O    0.92972   0.45231   0.25405   1.000
    O507    O    0.94471   0.38986   0.25729   1.000
    O508    O    0.05553   0.50806   0.26622   1.000
    O509    O    0.55552   0.50806   0.26622   1.000
    O510    O    0.48516   0.50802   0.26958   1.000
    O511    O    0.98516   0.50802   0.26958   1.000
    O512    O    0.03018   0.55537   0.27169   1.000
    O513    O    0.53016   0.55537   0.27169   1.000
    O514    O    0.88995   0.06537   0.26791   1.000
    O515    O    0.92283   0.00564   0.27727   1.000
    O516    O    0.38996   0.06537   0.26791   1.000
    O517    O    0.42284   0.00564   0.27727   1.000
    O518    O    0.76092   0.22453   0.29492   1.000
    O519    O    0.26093   0.22453   0.29492   1.000
    O520    O    0.93718   0.94047   0.28199   1.000
    O521    O    0.94550   0.85066   0.29445   1.000
    O522    O    0.43719   0.94047   0.28199   1.000
    O523    O    0.44552   0.85066   0.29445   1.000
    O524    O    0.28155   0.71416   0.30926   1.000
    O525    O    0.78153   0.71416   0.30926   1.000
    O526    O    0.54348   0.52235   0.32525   1.000
    O527    O    0.04350   0.52235   0.32525   1.000
    O528    O    0.49142   0.98174   0.29986   1.000
    O529    O    0.99142   0.98174   0.29986   1.000
    O530    O    0.33412   0.23133   0.31144   1.000
    O531    O    0.92563   0.76687   0.34051   1.000
    O532    O    0.01768   0.80554   0.35803   1.000
    O533    O    0.42565   0.76687   0.34051   1.000
    O534    O    0.51768   0.80554   0.35801   1.000
    O535    O    0.83410   0.23133   0.32144   1.000
    O536    O    0.28010   0.19840   0.35789   1.000
    O537    O    0.78009   0.19839   0.35789   1.000
    O538    O    0.14231   0.65292   0.35419   1.000
    O539    O    0.64230   0.65292   0.35419   1.000
    O540    O    0.83700   0.72309   0.35369   1.000
    O541    O    0.77282   0.69325   0.36660   1.000
    O542    O    0.33702   0.72309   0.35369   1.000
    O543    O    0.27283   0.69325   0.36660   1.000
    O544    O    0.65842   0.13770   0.36582   1.000
    O545    O    0.15843   0.13772   0.36582   1.000
    O546    O    0.64586   0.87395   0.36981   1.000
    O547    O    0.14587   0.87395   0.36981   1.000
    O548    O    0.67790   0.53945   0.37326   1.000
    O549    O    0.17791   0.53945   0.37326   1.000
    O550    O    0.88245   0.72551   0.40711   1.000
    O551    O    0.38247   0.72551   0.40711   1.000
    O552    O    0.55493   0.48901   0.37811   1.000
    O553    O    0.60479   0.53661   0.38006   1.000
    O554    O    0.53069   0.53643   0.38385   1.000
    O555    O    0.05494   0.48901   0.37811   1.000
    O556    O    0.10480   0.53661   0.38006   1.000
    O557    O    0.03070   0.53643   0.38385   1.000
    O558    O    0.15495   0.59823   0.38711   1.000
    O559    O    0.20338   0.65952   0.38856   1.000
    O560    O    0.13600   0.65803   0.40347   1.000
    O561    O    0.65494   0.59823   0.38711   1.000
    O562    O    0.70337   0.65952   0.38856   1.000
    O563    O    0.63598   0.65803   0.40347   1.000
    O564    O    0.16440   0.54490   0.42130   1.000
    O565    O    0.66439   0.54490   0.42130   1.000
    O566    O    0.72459   0.15725   0.39224   1.000
    O567    O    0.67092   0.11685   0.42413   1.000
    O568    O    0.22460   0.15726   0.39224   1.000
    O569    O    0.17093   0.11685   0.42413   1.000
    O570    O    0.29663   0.17738   0.42675   1.000
    O571    O    0.79661   0.17738   0.42675   1.000
    O572    O    0.77865   0.67702   0.42834   1.000
    O573    O    0.27866   0.67702   0.42834   1.000
    O574    O    0.59926   0.83445   0.40132   1.000
    O575    O    0.66709   0.85815   0.43626   1.000
    O576    O    0.09927   0.83445   0.40133   1.000
    O577    O    0.16710   0.85815   0.43626   1.000
    O578    O    0.29005   0.91652   0.44906   1.000
    O579    O    0.79004   0.91652   0.44906   1.000
    O580    O    0.96072   0.95676   0.46466   1.000
    O581    O    0.46074   0.95675   0.46466   1.000
    O582    O    0.34679   0.69698   0.45413   1.000
    O583    O    0.41670   0.72362   0.46463   1.000
    O584    O    0.84678   0.69698   0.45413   1.000
    O585    O    0.91669   0.72362   0.46463   1.000
    O586    O    0.11834   0.07630   0.45193   1.000
    O587    O    0.06119   0.03829   0.48055   1.000
    O588    O    0.61833   0.07628   0.45193   1.000
    O589    O    0.56119   0.03828   0.48055   1.000
    O590    O    0.68873   0.09729   0.49076   1.000
    O591    O    0.18874   0.09728   0.49076   1.000
    O592    O    0.93005   0.00151   0.47327   1.000
    O593    O    0.43006   0.00150   0.47327   1.000
    O594    O    0.35952   0.19276   0.46091   1.000
    O595    O    0.31419   0.15872   0.49366   1.000
    O596    O    0.85950   0.19277   0.46092   1.000
    O597    O    0.81417   0.15873   0.49366   1.000
    O598    O    0.29621   0.66741   0.48922   1.000
    O599    O    0.79620   0.66741   0.48922   1.000
    O600    O    0.74001   0.88091   0.47422   1.000
    O601    O    0.68580   0.84123   0.50634   1.000
    O602    O    0.24002   0.88091   0.47422   1.000
    O603    O    0.18581   0.84123   0.50634   1.000
    O604    O    0.81125   0.90267   0.50925   1.000
    O605    O    0.31126   0.90267   0.50925   1.000
    O606    O    0.20379   0.33254   0.51077   1.000
    O607    O    0.70377   0.33255   0.51077   1.000
    O608    O    0.49999   0.99998   0.50000   1.000
    O609    O    0.43880   0.96167   0.51945   1.000
    O610    O    0.99999   0.99998   0.50000   1.000
    O611    O    0.93879   0.96168   0.51945   1.000
    O612    O    0.06994   0.99845   0.52674   1.000
    O613    O    0.03926   0.04320   0.53535   1.000
    O614    O    0.56993   0.99845   0.52674   1.000
    O615    O    0.53925   0.04320   0.53535   1.000
    O616    O    0.58328   0.27634   0.53538   1.000
    O617    O    0.08330   0.27633   0.53538   1.000
    O618    O    0.75996   0.11905   0.52578   1.000
    O619    O    0.70993   0.08344   0.55094   1.000
    O620    O    0.25998   0.11904   0.52578   1.000
    O621    O    0.20995   0.08343   0.55094   1.000
    O622    O    0.33290   0.14181   0.56371   1.000
    O623    O    0.83289   0.14181   0.56371   1.000
    O624    O    0.65319   0.30298   0.54588   1.000
    O625    O    0.72133   0.32293   0.57168   1.000
    O626    O    0.15321   0.30297   0.54588   1.000
    O627    O    0.22134   0.32293   0.57168   1.000
    O628    O    0.64047   0.80719   0.53909   1.000
    O629    O    0.14048   0.80720   0.53909   1.000
    O630    O    0.20337   0.82258   0.57325   1.000
    O631    O    0.70336   0.82258   0.57325   1.000
    O632    O    0.88164   0.92367   0.54808   1.000
    O633    O    0.82905   0.88311   0.57588   1.000
    O634    O    0.38166   0.92367   0.54808   1.000
    O635    O    0.32907   0.88311   0.57588   1.000
    O636    O    0.33560   0.45505   0.57871   1.000
    O637    O    0.83558   0.45506   0.57871   1.000
    O638    O    0.61752   0.27444   0.59290   1.000
    O639    O    0.11753   0.27444   0.59290   1.000
    O640    O    0.86399   0.34192   0.59652   1.000
    O641    O    0.36400   0.34192   0.59652   1.000
    O642    O    0.40072   0.16552   0.59864   1.000
    O643    O    0.48231   0.19443   0.64194   1.000
    O644    O    0.90071   0.16552   0.59864   1.000
    O645    O    0.98230   0.19443   0.64194   1.000
    O646    O    0.35412   0.12601   0.63016   1.000
    O647    O    0.85411   0.12602   0.63016   1.000
    O648    O    0.96928   0.46352   0.61613   1.000
    O649    O    0.46929   0.46352   0.61613   1.000
    O650    O    0.79661   0.34043   0.61143   1.000
    O651    O    0.72716   0.30671   0.63341   1.000
    O652    O    0.29662   0.34043   0.61143   1.000
    O653    O    0.22717   0.30671   0.63341   1.000
    O654    O    0.27539   0.84270   0.60776   1.000
    O655    O    0.21989   0.80157   0.64211   1.000
    O656    O    0.77538   0.84271   0.60776   1.000
    O657    O    0.71988   0.80158   0.64211   1.000
    O658    O    0.34156   0.86225   0.63419   1.000
    O659    O    0.84155   0.86225   0.63419   1.000
    O660    O    0.34505   0.40173   0.61288   1.000
    O661    O    0.39520   0.46334   0.61995   1.000
    O662    O    0.32209   0.46050   0.62675   1.000
    O663    O    0.84504   0.40173   0.61288   1.000
    O664    O    0.89519   0.46334   0.61995   1.000
    O665    O    0.82208   0.46050   0.62675   1.000
    O666    O    0.94505   0.51095   0.62190   1.000
    O667    O    0.44506   0.51095   0.62190   1.000
    O668    O    0.35769   0.34703   0.64580   1.000
    O669    O    0.85768   0.34703   0.64580   1.000
    O670    O    0.95649   0.47761   0.67474   1.000
    O671    O    0.45650   0.47761   0.67474   1.000
    O672    O    0.66297   0.27686   0.64632   1.000
    O673    O    0.57434   0.23309   0.65945   1.000
    O674    O    0.16298   0.27686   0.64632   1.000
    O675    O    0.07435   0.23309   0.65945   1.000
    O676    O    0.21845   0.28579   0.69075   1.000
    O677    O    0.71844   0.28579   0.69075   1.000
    O678    O    0.66586   0.76864   0.67857   1.000
    O679    O    0.73904   0.77544   0.70508   1.000
    O680    O    0.16587   0.76864   0.67857   1.000
    O681    O    0.23905   0.77544   0.70508   1.000
    O682    O    0.55446   0.14930   0.70552   1.000
    O683    O    0.50257   0.23608   0.72714   1.000
    O684    O    0.05448   0.14930   0.70552   1.000
    O685    O    0.00257   0.23608   0.72714   1.000
    O686    O    0.50856   0.01822   0.70016   1.000
    O687    O    0.00856   0.01822   0.70016   1.000
    O688    O    0.06280   0.05949   0.71803   1.000
    O689    O    0.07715   0.99433   0.72274   1.000
    O690    O    0.56279   0.05949   0.71803   1.000
    O691    O    0.57714   0.99433   0.72274   1.000
    O692    O    0.46982   0.44459   0.72831   1.000
    O693    O    0.51483   0.49194   0.73040   1.000
    O694    O    0.44446   0.49189   0.73377   1.000
    O695    O    0.96981   0.44459   0.72831   1.000
    O696    O    0.01483   0.49194   0.73040   1.000
    O697    O    0.94445   0.49189   0.73377   1.000
    O698    O    0.12572   0.09199   0.73734   1.000
    O699    O    0.62570   0.09199   0.73734   1.000
    O700    O    0.11003   0.93459   0.73211   1.000
    O701    O    0.61002   0.93459   0.73211   1.000
    O702    O    0.24725   0.73606   0.77289   1.000
    O703    O    0.74724   0.73606   0.77289   1.000
    O704    O    0.65003   0.98770   0.74538   1.000
    O705    O    0.15004   0.98770   0.74538   1.000
    O706    O    0.55526   0.61010   0.74272   1.000
    O707    O    0.05527   0.61010   0.74272   1.000
    O708    O    0.57025   0.54765   0.74596   1.000
    O709    O    0.60001   0.48753   0.75463   1.000
    O710    O    0.07026   0.54765   0.74596   1.000
    O711    O    0.10002   0.48753   0.75463   1.000
    O712    O    0.62416   0.59184   0.76292   1.000
    O713    O    0.12418   0.59184   0.76292   1.000
    O714    O    0.30555   0.98785   0.76616   1.000
    O715    O    0.80554   0.98785   0.76616   1.000
    O716    O    0.17968   0.04787   0.75426   1.000
    O717    O    0.19454   0.11035   0.75772   1.000
    O718    O    0.67966   0.04787   0.75426   1.000
    O719    O    0.69453   0.11035   0.75772   1.000
    O720    O    0.23520   0.99222   0.76959   1.000
    O721    O    0.73519   0.99222   0.76959   1.000
    O722    O    0.78026   0.94497   0.77149   1.000
    O723    O    0.28028   0.94497   0.77149   1.000
    O724    O    0.64011   0.43448   0.76771   1.000
    O725    O    0.67292   0.49425   0.77719   1.000
    O726    O    0.14012   0.43448   0.76771   1.000
    O727    O    0.17293   0.49425   0.77719   1.000
    O728    O    0.01058   0.27542   0.79494   1.000
    O729    O    0.51058   0.27542   0.79494   1.000
    O730    O    0.68716   0.55943   0.78206   1.000
    O731    O    0.69548   0.64923   0.79460   1.000
    O732    O    0.18717   0.55943   0.78206   1.000
    O733    O    0.19549   0.64923   0.79460   1.000
    O734    O    0.03205   0.78571   0.80912   1.000
    O735    O    0.53203   0.78571   0.80912   1.000
    O736    O    0.29364   0.97781   0.82516   1.000
    O737    O    0.79362   0.97781   0.82516   1.000
    O738    O    0.74149   0.51823   0.79975   1.000
    O739    O    0.24150   0.51823   0.79973   1.000
    O740    O    0.17579   0.73308   0.84062   1.000
    O741    O    0.26778   0.69441   0.85809   1.000
    O742    O    0.67578   0.73308   0.84062   1.000
    O743    O    0.76777   0.69441   0.85809   1.000
    O744    O    0.08378   0.26864   0.82143   1.000
    O745    O    0.58377   0.26865   0.82143   1.000
    O746    O    0.52979   0.30152   0.85793   1.000
    O747    O    0.02979   0.30152   0.85793   1.000
    O748    O    0.89278   0.84733   0.85343   1.000
    O749    O    0.39280   0.84733   0.85345   1.000
    O750    O    0.08734   0.77689   0.85368   1.000
    O751    O    0.02316   0.80684   0.86636   1.000
    O752    O    0.58733   0.77689   0.85368   1.000
    O753    O    0.52315   0.80684   0.86636   1.000
    O754    O    0.40822   0.36221   0.86587   1.000
    O755    O    0.90820   0.36222   0.86589   1.000
    O756    O    0.39594   0.62602   0.86980   1.000
    O757    O    0.89593   0.62602   0.86980   1.000
    O758    O    0.92812   0.96078   0.87286   1.000
    O759    O    0.42813   0.96077   0.87286   1.000
    O760    O    0.63262   0.77462   0.90719   1.000
    O761    O    0.13264   0.77462   0.90719   1.000
    O762    O    0.80510   0.01097   0.87816   1.000
    O763    O    0.85503   0.96345   0.87981   1.000
    O764    O    0.78097   0.96344   0.88378   1.000
    O765    O    0.30512   0.01097   0.87816   1.000
    O766    O    0.35505   0.96345   0.87981   1.000
    O767    O    0.28098   0.96344   0.88378   1.000
    O768    O    0.90523   0.90192   0.88658   1.000
    O769    O    0.95367   0.84067   0.88806   1.000
    O770    O    0.88614   0.84204   0.90265   1.000
    O771    O    0.40524   0.90191   0.88658   1.000
    O772    O    0.45367   0.84067   0.88806   1.000
    O773    O    0.38615   0.84204   0.90265   1.000
    O774    O    0.91475   0.95513   0.92092   1.000
    O775    O    0.41476   0.95513   0.92092   1.000
    O776    O    0.97435   0.34263   0.89231   1.000
    O777    O    0.92074   0.38306   0.92420   1.000
    O778    O    0.47435   0.34263   0.89231   1.000
    O779    O    0.42075   0.38305   0.92420   1.000
    O780    O    0.54634   0.32247   0.92681   1.000
    O781    O    0.04635   0.32247   0.92681   1.000
    O782    O    0.02884   0.82330   0.92803   1.000
    O783    O    0.52883   0.82330   0.92803   1.000
    O784    O    0.84939   0.66554   0.90133   1.000
    O785    O    0.91723   0.64186   0.93623   1.000
    O786    O    0.34940   0.66554   0.90133   1.000
    O787    O    0.41724   0.64186   0.93623   1.000
    O788    O    0.04016   0.58348   0.94901   1.000
    O789    O    0.54015   0.58348   0.94901   1.000
    O790    O    0.21088   0.54322   0.96466   1.000
    O791    O    0.71087   0.54322   0.96466   1.000
    O792    O    0.09687   0.80337   0.95404   1.000
    O793    O    0.16672   0.77672   0.96474   1.000
    O794    O    0.59686   0.80337   0.95404   1.000
    O795    O    0.66671   0.77671   0.96474   1.000
    O796    O    0.36824   0.42363   0.95200   1.000
    O797    O    0.86823   0.42363   0.95200   1.000
    O798    O    0.18010   0.49849   0.97321   1.000
    O799    O    0.68008   0.49850   0.97321   1.000
    O800    O    0.10922   0.30705   0.96097   1.000
    O801    O    0.60921   0.30706   0.96097   1.000
    O802    O    0.99017   0.61911   0.97417   1.000
    O803    O    0.49017   0.61911   0.97417   1.000
loop_
    _geom_bond_atom_site_label_1
    _geom_bond_atom_site_label_2
    _geom_bond_distance
    _geom_bond_site_symmetry_2
    _ccdc_geom_bond_type
    C203   O384      0.55026      .   S
    C51    O384      0.55026      .   S
    C203   O385      0.54993      .   S
    C49    O385      0.54993      .   S
    C203   O386      0.71706  1_554   S
    C357   O386      0.71706      .   S
    C203   O387      0.75901      .   S
    C279   O387      0.75901  1_556   S
    C202   O388      0.55010      .   S
    C50    O388      0.55010      .   S
    C202   O389      0.54994      .   S
    C48    O389      0.54994      .   S
    C202   O390      0.71705  1_554   S
    C356   O390      0.71705      .   S
    C202   O391      0.75901      .   S
    C278   O391      0.75901  1_556   S
    C145   O392      0.54117  1_554   S
    C301   O392      0.54117      .   S
    C144   O393      0.54117  1_554   S
    C300   O393      0.54117      .   S
    C67    O394      0.54163      .   S
    C223   O394      0.54163      .   S
    C66    O395      0.54163      .   S
    C222   O395      0.54163      .   S
    C199   O396      0.70213  1_655   S
    C210   O396      0.70213      .   S
    C199   O397      0.54365      .   S
    C47    O397      0.54365      .   S
    C199   O398      0.69964  1_554   S
    C201   O398      0.69964      .   S
    C198   O399      0.70197      .   S
    C211   O399      0.70197      .   S
    C198   O400      0.54368      .   S
    C46    O400      0.54368      .   S
    C198   O401      0.69965  1_554   S
    C200   O401      0.69965      .   S
    C211   O402      0.75353      .   S
    C213   O402      0.75353      .   S
    C211   O403      0.69871  1_554   S
    C207   O403      0.69871      .   S
    C210   O404      0.75409      .   S
    C212   O404      0.75409      .   S
    C210   O405      0.69874  1_554   S
    C206   O405      0.69874      .   S
    C225   O406      0.68597      .   S
    C223   O406      0.68597      .   S
    C225   O407      0.69313      .   S
    C321   O407      0.69313      .   S
    C225   O408      0.54110      .   S
    C69    O408      0.54110  1_556   S
    C224   O409      0.68597      .   S
    C222   O409      0.68597      .   S
    C224   O410      0.69312      .   S
    C320   O410      0.69312      .   S
    C224   O411      0.54110      .   S
    C68    O411      0.54110  1_556   S
    C132   O412      0.54312      .   S
    C282   O412      0.54312      .   S
    C133   O413      0.54312      .   S
    C283   O413      0.54312      .   S
    C282   O414      0.70054      .   S
    C292   O414      0.70054      .   S
    C282   O415      0.69870      .   S
    C286   O415      0.69870  1_556   S
    C283   O416      0.70052      .   S
    C293   O416      0.70052      .   S
    C283   O417      0.69870      .   S
    C287   O417      0.69870  1_556   S
    C277   O418      0.68414      .   S
    C377   O418      0.68414      .   S
    C277   O419      0.70043      .   S
    C285   O419      0.70043      .   S
    C277   O420      0.69930      .   S
    C275   O420      0.69930  1_556   S
    C276   O421      0.68411      .   S
    C376   O421      0.68411      .   S
    C276   O422      0.70049      .   S
    C284   O422      0.70049      .   S
    C276   O423      0.69971      .   S
    C274   O423      0.69971  1_556   S
    C65    O424      0.55053      .   S
    C219   O424      0.55053      .   S
    C64    O425      0.55053      .   S
    C218   O425      0.55053      .   S
    C376   O426      0.71705      .   S
    C278   O426      0.71705  1_556   S
    C377   O427      0.71705      .   S
    C279   O427      0.71705  1_556   S
    C223   O428      0.69309      .   S
    C323   O428      0.69309      .   S
    C222   O429      0.69309      .   S
    C322   O429      0.69309      .   S
    C53    O430      0.54981      .   S
    C205   O430      0.54981      .   S
    C52    O431      0.54938      .   S
    C204   O431      0.54938      .   S
    C354   O432      0.65257      .   S
    C212   O432      0.65257      .   S
    C354   O433      0.98577      .   S
    C2     O433      0.98577      .   S
    C355   O434      0.65248      .   S
    C213   O434      0.65248      .   S
    C355   O435      0.98577      .   S
    C3     O435      0.98577      .   S
    C213   O436      0.62457      .   S
    C361   O436      0.62457      .   S
    C212   O437      0.62401      .   S
    C360   O437      0.62401      .   S
    C72    O438      0.55139      .   S
    C228   O438      0.55139      .   S
    C73    O439      0.55140      .   S
    C229   O439      0.55140      .   S
    C321   O440      0.73292  1_655   S
    C204   O440      0.73292      .   S
    C321   O441      0.67859      .   S
    C227   O441      0.67859      .   S
    C320   O442      0.73276      .   S
    C205   O442      0.73276      .   S
    C320   O443      0.67819      .   S
    C226   O443      0.67819      .   S
    C293   O444      0.69803  1_655   S
    C284   O444      0.69803      .   S
    C293   O445      0.75119      .   S
    C297   O445      0.75119      .   S
    C292   O446      0.69792      .   S
    C285   O446      0.69792      .   S
    C292   O447      0.75120      .   S
    C296   O447      0.75120      .   S
    C285   O448      0.54433      .   S
    C135   O448      0.54433      .   S
    C284   O449      0.54385      .   S
    C134   O449      0.54385      .   S
    C219   O450      0.76527      .   S
    C205   O450      0.76527      .   S
    C219   O451      0.76801      .   S
    C229   O451      0.76801      .   S
    C219   O452      0.55120      .   S
    C63    O452      0.55120      .   S
    C218   O453      0.76527      .   S
    C204   O453      0.76527      .   S
    C218   O454      0.76802      .   S
    C228   O454      0.76802      .   S
    C218   O455      0.55120      .   S
    C62    O455      0.55120      .   S
    C75    O456      0.55050      .   S
    C229   O456      0.55050  1_545   S
    C74    O457      0.55050      .   S
    C228   O457      0.55050  1_545   S
    C205   O458      0.54866      .   S
    C55    O458      0.54866      .   S
    C204   O459      0.54866      .   S
    C54    O459      0.54866      .   S
    C228   O460      0.76579      .   S
    C230   O460      0.76579      .   S
    C229   O461      0.76579      .   S
    C231   O461      0.76579      .   S
    C322   O462      0.66747      .   S
    C226   O462      0.66747      .   S
    C322   O463      1.02752      .   S
    C2     O463      1.02752      .   S
    C323   O464      0.66763      .   S
    C227   O464      0.66763      .   S
    C323   O465      1.02752      .   S
    C3     O465      1.02752      .   S
    C226   O466      0.54230      .   S
    C70    O466      0.54230      .   S
    C227   O467      0.54181      .   S
    C71    O467      0.54181      .   S
    C297   O468      0.62640      .   S
    C379   O468      0.62640      .   S
    C297   O469      0.65363      .   S
    C382   O469      0.65363  1_455   S
    C296   O470      0.62640      .   S
    C378   O470      0.62640      .   S
    C296   O471      0.65351      .   S
    C383   O471      0.65351      .   S
    C3     O472      1.00718      .   S
    C317   O472      1.00718      .   S
    C3     O473      0.99907      .   S
    C373   O473      0.99907      .   S
    C2     O474      1.00717      .   S
    C316   O474      1.00717      .   S
    C2     O475      0.99909      .   S
    C372   O475      0.99909      .   S
    C23    O476      0.54161      .   S
    C177   O476      0.54161      .   S
    C22    O477      0.54161      .   S
    C176   O477      0.54161      .   S
    C176   O478      0.69378      .   S
    C316   O478      0.69378      .   S
    C176   O479      0.68559      .   S
    C196   O479      0.68559      .   S
    C177   O480      0.69378      .   S
    C317   O480      0.69378      .   S
    C177   O481      0.68559      .   S
    C197   O481      0.68559      .   S
    C230   O482      0.54803      .   S
    C78    O482      0.54803      .   S
    C230   O483      0.73281      .   S
    C326   O483      0.73281  1_565   S
    C230   O484      0.54882      .   S
    C76    O484      0.54882  1_565   S
    C231   O485      0.54804      .   S
    C79    O485      0.54804      .   S
    C231   O486      0.73280      .   S
    C327   O486      0.73280  1_565   S
    C231   O487      0.54920      .   S
    C77    O487      0.54920  1_565   S
    C316   O488      0.66792      .   S
    C194   O488      0.66792      .   S
    C317   O489      0.66792      .   S
    C195   O489      0.66792      .   S
    C44    O490      0.54147      .   S
    C196   O490      0.54147      .   S
    C45    O491      0.54146      .   S
    C197   O491      0.54146      .   S
    C383   O492      0.99945      .   S
    C0     O492      0.99945      .   S
    C382   O493      0.99953  1_455   S
    C1     O493      0.99953      .   S
    C196   O494      0.69397      .   S
    C318   O494      0.69397      .   S
    C197   O495      0.69397      .   S
    C319   O495      0.69397      .   S
    C81    O496      0.54069      .   S
    C233   O496      0.54069      .   S
    C80    O497      0.54078      .   S
    C232   O497      0.54078      .   S
    C326   O498      0.67750      .   S
    C232   O498      0.67750      .   S
    C326   O499      0.69401  1_565   S
    C234   O499      0.69401      .   S
    C327   O500      0.67746      .   S
    C233   O500      0.67746      .   S
    C327   O501      0.69401  1_565   S
    C235   O501      0.69401      .   S
    C233   O502      0.66809      .   S
    C325   O502      0.66809      .   S
    C232   O503      0.66791      .   S
    C324   O503      0.66791      .   S
    C194   O504      0.67750      .   S
    C318   O504      0.67750      .   S
    C194   O505      0.54077      .   S
    C42    O505      0.54077      .   S
    C195   O506      0.67750      .   S
    C319   O506      0.67750      .   S
    C195   O507      0.54078      .   S
    C43    O507      0.54078      .   S
    C38    O508      0.54900      .   S
    C192   O508      0.54900      .   S
    C39    O509      0.54901      .   S
    C193   O509      0.54901      .   S
    C318   O510      0.73263      .   S
    C193   O510      0.73263      .   S
    C319   O511      0.73278      .   S
    C192   O511      0.73278  1_455   S
    C40    O512      0.54790      .   S
    C192   O512      0.54790      .   S
    C41    O513      0.54790      .   S
    C193   O513      0.54790      .   S
    C235   O514      0.54145      .   S
    C83    O514      0.54145      .   S
    C235   O515      0.68572      .   S
    C215   O515      0.68572  1_565   S
    C234   O516      0.54146      .   S
    C82    O516      0.54146      .   S
    C234   O517      0.68572      .   S
    C214   O517      0.68572  1_565   S
    C373   O518      0.65346      .   S
    C259   O518      0.65346      .   S
    C372   O519      0.65341      .   S
    C258   O519      0.65341      .   S
    C325   O520      0.69375      .   S
    C215   O520      0.69375      .   S
    C325   O521      1.00716      .   S
    C1     O521      1.00716      .   S
    C324   O522      0.69375      .   S
    C214   O522      0.69375      .   S
    C324   O523      1.00716      .   S
    C0     O523      1.00716      .   S
    C32    O524      0.54182      .   S
    C188   O524      0.54182      .   S
    C33    O525      0.54182      .   S
    C189   O525      0.54182      .   S
    C193   O526      0.76627      .   S
    C191   O526      0.76627      .   S
    C192   O527      0.76627      .   S
    C190   O527      0.76627      .   S
    C214   O528      0.54160      .   S
    C61    O528      0.54160      .   S
    C215   O529      0.54175      .   S
    C60    O529      0.54175  1_455   S
    C368   O530      0.67196      .   S
    C258   O530      0.67196      .   S
    C1     O531      1.02791      .   S
    C315   O531      1.02791      .   S
    C1     O532      0.98598  1_655   S
    C344   O532      0.98598      .   S
    C0     O533      1.02791      .   S
    C314   O533      1.02791      .   S
    C0     O534      0.98569      .   S
    C345   O534      0.98569      .   S
    C369   O535      0.62634      .   S
    C259   O535      0.62634      .   S
    C258   O536      0.75127      .   S
    C254   O536      0.75127      .   S
    C259   O537      0.75126      .   S
    C255   O537      0.75126      .   S
    C16    O538      0.54841      .   S
    C166   O538      0.54841      .   S
    C17    O539      0.54841      .   S
    C167   O539      0.54841      .   S
    C189   O540      0.66767      .   S
    C315   O540      0.66767      .   S
    C189   O541      0.67867      .   S
    C313   O541      0.67867      .   S
    C188   O542      0.66767      .   S
    C314   O542      0.66767      .   S
    C188   O543      0.67868      .   S
    C312   O543      0.67868      .   S
    C97    O544      0.54391      .   S
    C247   O544      0.54391      .   S
    C96    O545      0.54389      .   S
    C246   O545      0.54389      .   S
    C351   O546      0.62398      .   S
    C175   O546      0.62398      .   S
    C350   O547      0.62398      .   S
    C174   O547      0.62398      .   S
    C25    O548      0.55115      .   S
    C181   O548      0.55115      .   S
    C24    O549      0.55115      .   S
    C180   O549      0.55115      .   S
    C315   O550      0.69311      .   S
    C185   O550      0.69311      .   S
    C314   O551      0.69311      .   S
    C184   O551      0.69311      .   S
    C191   O552      0.55028      .   S
    C37    O552      0.55028      .   S
    C191   O553      0.76801      .   S
    C181   O553      0.76801      .   S
    C191   O554      0.55111      .   S
    C35    O554      0.55111      .   S
    C190   O555      0.55028      .   S
    C36    O555      0.55028      .   S
    C190   O556      0.76801      .   S
    C180   O556      0.76801      .   S
    C190   O557      0.55111      .   S
    C34    O557      0.55111      .   S
    C166   O558      0.76536      .   S
    C180   O558      0.76536      .   S
    C166   O559      0.73281      .   S
    C312   O559      0.73281      .   S
    C166   O560      0.54962      .   S
    C14    O560      0.54962      .   S
    C167   O561      0.76536      .   S
    C181   O561      0.76536      .   S
    C167   O562      0.73281      .   S
    C313   O562      0.73281      .   S
    C167   O563      0.54962      .   S
    C15    O563      0.54962      .   S
    C180   O564      0.55059      .   S
    C26    O564      0.55059      .   S
    C181   O565      0.55059      .   S
    C27    O565      0.55059      .   S
    C247   O566      0.69791      .   S
    C255   O566      0.69791      .   S
    C247   O567      0.70051      .   S
    C239   O567      0.70051      .   S
    C246   O568      0.69791      .   S
    C254   O568      0.69791      .   S
    C246   O569      0.70053      .   S
    C238   O569      0.70053      .   S
    C254   O570      0.70055      .   S
    C244   O570      0.70055      .   S
    C255   O571      0.70055      .   S
    C245   O571      0.70055      .   S
    C313   O572      0.69307      .   S
    C187   O572      0.69307      .   S
    C312   O573      0.69308      .   S
    C186   O573      0.69308      .   S
    C175   O574      0.65251      .   S
    C345   O574      0.65251      .   S
    C175   O575      0.75409      .   S
    C173   O575      0.75409      .   S
    C174   O576      0.65254      .   S
    C344   O576      0.65254      .   S
    C174   O577      0.75409      .   S
    C172   O577      0.75409      .   S
    C8     O578      0.54363      .   S
    C160   O578      0.54363      .   S
    C9     O579      0.54364      .   S
    C161   O579      0.54364      .   S
    C11    O580      0.54990      .   S
    C165   O580      0.54990      .   S
    C10    O581      0.54991      .   S
    C164   O581      0.54991      .   S
    C184   O582      0.68593      .   S
    C186   O582      0.68593      .   S
    C184   O583      0.54162      .   S
    C28    O583      0.54162      .   S
    C185   O584      0.68593      .   S
    C187   O584      0.68593      .   S
    C185   O585      0.54162      .   S
    C29    O585      0.54162      .   S
    C366   O586      0.68415      .   S
    C238   O586      0.68415      .   S
    C366   O587      0.71720      .   S
    C240   O587      0.71720      .   S
    C367   O588      0.68415      .   S
    C239   O588      0.68415      .   S
    C367   O589      0.71717      .   S
    C241   O589      0.71717      .   S
    C239   O590      0.69977      .   S
    C237   O590      0.69977      .   S
    C238   O591      0.69979      .   S
    C236   O591      0.69979      .   S
    C13    O592      0.55037      .   S
    C165   O592      0.55037  1_565   S
    C12    O593      0.55036      .   S
    C164   O593      0.55036  1_565   S
    C244   O594      0.54312      .   S
    C94    O594      0.54312      .   S
    C244   O595      0.69881      .   S
    C248   O595      0.69881      .   S
    C245   O596      0.54312      .   S
    C95    O596      0.54312      .   S
    C245   O597      0.69877      .   S
    C249   O597      0.69877      .   S
    C186   O598      0.54086      .   S
    C30    O598      0.54086      .   S
    C187   O599      0.54086      .   S
    C31    O599      0.54086      .   S
    C173   O600      0.70194      .   S
    C161   O600      0.70194      .   S
    C173   O601      0.69877      .   S
    C169   O601      0.69877      .   S
    C172   O602      0.70193      .   S
    C160   O602      0.70193      .   S
    C172   O603      0.69875      .   S
    C168   O603      0.69875      .   S
    C161   O604      0.69977      .   S
    C163   O604      0.69977      .   S
    C160   O605      0.69977      .   S
    C162   O605      0.69977      .   S
    C106   O606      0.54124      .   S
    C262   O606      0.54124      .   S
    C107   O607      0.54125      .   S
    C263   O607      0.54125      .   S
    C164   O608      0.75919      .   S
    C241   O608      0.75919  1_545   S
    C164   O609      0.71718      .   S
    C346   O609      0.71718      .   S
    C165   O610      0.75933      .   S
    C240   O610      0.75933  1_445   S
    C165   O611      0.71719      .   S
    C347   O611      0.71719      .   S
    C240   O612      0.55038  1_545   S
    C88    O612      0.55038      .   S
    C240   O613      0.54994      .   S
    C86    O613      0.54994      .   S
    C241   O614      0.55036  1_545   S
    C89    O614      0.55036      .   S
    C241   O615      0.54992      .   S
    C87    O615      0.54992      .   S
    C105   O616      0.54157      .   S
    C261   O616      0.54157      .   S
    C104   O617      0.54157      .   S
    C260   O617      0.54157      .   S
    C237   O618      0.70194      .   S
    C249   O618      0.70194      .   S
    C237   O619      0.54364      .   S
    C85    O619      0.54364      .   S
    C236   O620      0.70193      .   S
    C248   O620      0.70193      .   S
    C236   O621      0.54363      .   S
    C84    O621      0.54363      .   S
    C248   O622      0.75360      .   S
    C250   O622      0.75360      .   S
    C249   O623      0.75360      .   S
    C251   O623      0.75360      .   S
    C263   O624      0.68591      .   S
    C261   O624      0.68591      .   S
    C263   O625      0.69307      .   S
    C329   O625      0.69307      .   S
    C262   O626      0.68591      .   S
    C260   O626      0.68591      .   S
    C262   O627      0.69307      .   S
    C328   O627      0.69307      .   S
    C19    O628      0.54312      .   S
    C169   O628      0.54312      .   S
    C18    O629      0.54312      .   S
    C168   O629      0.54312      .   S
    C168   O630      0.70059      .   S
    C178   O630      0.70059      .   S
    C169   O631      0.70057      .   S
    C179   O631      0.70057      .   S
    C163   O632      0.68415      .   S
    C347   O632      0.68415      .   S
    C163   O633      0.70052      .   S
    C171   O633      0.70052      .   S
    C162   O634      0.68415      .   S
    C346   O634      0.68415      .   S
    C162   O635      0.70052      .   S
    C170   O635      0.70052      .   S
    C102   O636      0.55052      .   S
    C256   O636      0.55052      .   S
    C103   O637      0.55051      .   S
    C257   O637      0.55051      .   S
    C261   O638      0.69311      .   S
    C331   O638      0.69311      .   S
    C260   O639      0.69310      .   S
    C330   O639      0.69310      .   S
    C91    O640      0.54937      .   S
    C243   O640      0.54937      .   S
    C90    O641      0.54937      .   S
    C242   O641      0.54937      .   S
    C364   O642      0.65246      .   S
    C250   O642      0.65246      .   S
    C364   O643      0.98535      .   S
    C5     O643      0.98535      .   S
    C365   O644      0.65247      .   S
    C251   O644      0.65247      .   S
    C365   O645      0.98546      .   S
    C4     O645      0.98546  1_455   S
    C250   O646      0.62449      .   S
    C370   O646      0.62449      .   S
    C251   O647      0.62448      .   S
    C371   O647      0.62448      .   S
    C111   O648      0.55144      .   S
    C267   O648      0.55144      .   S
    C110   O649      0.55144      .   S
    C266   O649      0.55144      .   S
    C329   O650      0.73280      .   S
    C243   O650      0.73280      .   S
    C329   O651      0.67861      .   S
    C265   O651      0.67861      .   S
    C328   O652      0.73280      .   S
    C242   O652      0.73280      .   S
    C328   O653      0.67861      .   S
    C264   O653      0.67861      .   S
    C178   O654      0.69791      .   S
    C170   O654      0.69791      .   S
    C178   O655      0.75126      .   S
    C182   O655      0.75126      .   S
    C179   O656      0.69791      .   S
    C171   O656      0.69791      .   S
    C179   O657      0.75126      .   S
    C183   O657      0.75126      .   S
    C170   O658      0.54392      .   S
    C20    O658      0.54392      .   S
    C171   O659      0.54392      .   S
    C21    O659      0.54392      .   S
    C256   O660      0.76533      .   S
    C242   O660      0.76533      .   S
    C256   O661      0.76803      .   S
    C266   O661      0.76803      .   S
    C256   O662      0.55120      .   S
    C100   O662      0.55120      .   S
    C257   O663      0.76534      .   S
    C243   O663      0.76534      .   S
    C257   O664      0.76802      .   S
    C267   O664      0.76802      .   S
    C257   O665      0.55120      .   S
    C101   O665      0.55120      .   S
    C113   O666      0.55036      .   S
    C267   O666      0.55036      .   S
    C112   O667      0.55035      .   S
    C266   O667      0.55035      .   S
    C242   O668      0.54871      .   S
    C92    O668      0.54871      .   S
    C243   O669      0.54872      .   S
    C93    O669      0.54872      .   S
    C267   O670      0.76584      .   S
    C269   O670      0.76584      .   S
    C266   O671      0.76584      .   S
    C268   O671      0.76584      .   S
    C331   O672      0.66767      .   S
    C265   O672      0.66767      .   S
    C331   O673      1.02751      .   S
    C5     O673      1.02751      .   S
    C330   O674      0.66766      .   S
    C264   O674      0.66766      .   S
    C330   O675      1.02751      .   S
    C4     O675      1.02751      .   S
    C264   O676      0.54182      .   S
    C108   O676      0.54182      .   S
    C265   O677      0.54182      .   S
    C109   O677      0.54182      .   S
    C183   O678      0.62633      .   S
    C349   O678      0.62633      .   S
    C183   O679      0.65342      .   S
    C353   O679      0.65342      .   S
    C182   O680      0.62633      .   S
    C348   O680      0.62633      .   S
    C182   O681      0.65342      .   S
    C352   O681      0.65342      .   S
    C5     O682      1.00738      .   S
    C341   O682      1.00738      .   S
    C5     O683      0.99998      .   S
    C362   O683      0.99998      .   S
    C4     O684      1.00738      .   S
    C340   O684      1.00738      .   S
    C4     O685      1.00007      .   S
    C363   O685      1.00007  1_655   S
    C136   O686      0.54159      .   S
    C291   O686      0.54159      .   S
    C137   O687      0.54176  1_655   S
    C290   O687      0.54176      .   S
    C290   O688      0.69374      .   S
    C340   O688      0.69374      .   S
    C290   O689      0.68572  1_545   S
    C310   O689      0.68572      .   S
    C291   O690      0.69374      .   S
    C341   O690      0.69374      .   S
    C291   O691      0.68572  1_545   S
    C311   O691      0.68572      .   S
    C268   O692      0.54804      .   S
    C116   O692      0.54804      .   S
    C268   O693      0.73271      .   S
    C335   O693      0.73271      .   S
    C268   O694      0.54925      .   S
    C114   O694      0.54925      .   S
    C269   O695      0.54804      .   S
    C117   O695      0.54804      .   S
    C269   O696      0.73286  1_655   S
    C334   O696      0.73286      .   S
    C269   O697      0.54924      .   S
    C115   O697      0.54924      .   S
    C340   O698      0.66793      .   S
    C308   O698      0.66793      .   S
    C341   O699      0.66793      .   S
    C309   O699      0.66793      .   S
    C158   O700      0.54145      .   S
    C310   O700      0.54145      .   S
    C159   O701      0.54145      .   S
    C311   O701      0.54145      .   S
    C352   O702      0.99906      .   S
    C6     O702      0.99906      .   S
    C353   O703      0.99907      .   S
    C7     O703      0.99907      .   S
    C311   O704      0.69401      .   S
    C343   O704      0.69401  1_545   S
    C310   O705      0.69401      .   S
    C342   O705      0.69401  1_545   S
    C119   O706      0.54077      .   S
    C271   O706      0.54077      .   S
    C118   O707      0.54077      .   S
    C270   O707      0.54077      .   S
    C335   O708      0.67750      .   S
    C271   O708      0.67750      .   S
    C335   O709      0.69399      .   S
    C273   O709      0.69399      .   S
    C334   O710      0.67750      .   S
    C270   O710      0.67750      .   S
    C334   O711      0.69399      .   S
    C272   O711      0.69399      .   S
    C271   O712      0.66794      .   S
    C333   O712      0.66794      .   S
    C270   O713      0.66794      .   S
    C332   O713      0.66794      .   S
    C152   O714      0.51424  1_545   S
    C306   O714      0.51424      .   S
    C153   O715      0.51424  1_545   S
    C307   O715      0.51424      .   S
    C308   O716      0.67751      .   S
    C342   O716      0.67751      .   S
    C308   O717      0.54078      .   S
    C156   O717      0.54078      .   S
    C309   O718      0.67750      .   S
    C343   O718      0.67750      .   S
    C309   O719      0.54078      .   S
    C157   O719      0.54078      .   S
    C342   O720      0.73266  1_545   S
    C306   O720      0.73266      .   S
    C343   O721      0.73266  1_545   S
    C307   O721      0.73266      .   S
    C155   O722      0.54781      .   S
    C307   O722      0.54781      .   S
    C154   O723      0.54781      .   S
    C306   O723      0.54781      .   S
    C273   O724      0.54147      .   S
    C121   O724      0.54147      .   S
    C273   O725      0.68560      .   S
    C253   O725      0.68560      .   S
    C272   O726      0.54147      .   S
    C120   O726      0.54147      .   S
    C272   O727      0.68559      .   S
    C252   O727      0.68559      .   S
    C363   O728      0.65362  1_655   S
    C220   O728      0.65362      .   S
    C362   O729      0.65351      .   S
    C221   O729      0.65351      .   S
    C333   O730      0.69378      .   S
    C253   O730      0.69378      .   S
    C333   O731      1.00718      .   S
    C7     O731      1.00718      .   S
    C332   O732      0.69378      .   S
    C252   O732      0.69378      .   S
    C332   O733      1.00719      .   S
    C6     O733      1.00719      .   S
    C146   O734      0.54181      .   S
    C302   O734      0.54181      .   S
    C147   O735      0.54181      .   S
    C303   O735      0.54181      .   S
    C306   O736      0.76646      .   S
    C304   O736      0.76646      .   S
    C307   O737      0.76646      .   S
    C305   O737      0.76646      .   S
    C253   O738      0.54158      .   S
    C99    O738      0.54158      .   S
    C252   O739      0.54148      .   S
    C98    O739      0.54148      .   S
    C6     O740      1.02739      .   S
    C338   O740      1.02739      .   S
    C6     O741      0.98579      .   S
    C374   O741      0.98579      .   S
    C7     O742      1.02738      .   S
    C339   O742      1.02738      .   S
    C7     O743      0.98579      .   S
    C375   O743      0.98579      .   S
    C358   O744      0.62639      .   S
    C220   O744      0.62639      .   S
    C359   O745      0.62639      .   S
    C221   O745      0.62639      .   S
    C221   O746      0.75117      .   S
    C217   O746      0.75117      .   S
    C220   O747      0.75117      .   S
    C216   O747      0.75117      .   S
    C131   O748      0.54905      .   S
    C281   O748      0.54905      .   S
    C130   O749      0.54874      .   S
    C280   O749      0.54874      .   S
    C302   O750      0.66755      .   S
    C338   O750      0.66755      .   S
    C302   O751      0.67858      .   S
    C336   O751      0.67858      .   S
    C303   O752      0.66756      .   S
    C339   O752      0.66756      .   S
    C303   O753      0.67858      .   S
    C337   O753      0.67858      .   S
    C58    O754      0.54411      .   S
    C208   O754      0.54411      .   S
    C59    O755      0.54392      .   S
    C209   O755      0.54392      .   S
    C380   O756      0.62398      .   S
    C288   O756      0.62398      .   S
    C381   O757      0.62398      .   S
    C289   O757      0.62398      .   S
    C139   O758      0.55087      .   S
    C295   O758      0.55087      .   S
    C138   O759      0.55087      .   S
    C294   O759      0.55087      .   S
    C339   O760      0.69334      .   S
    C299   O760      0.69334      .   S
    C338   O761      0.69334      .   S
    C298   O761      0.69334      .   S
    C305   O762      0.55050  1_565   S
    C151   O762      0.55050      .   S
    C305   O763      0.76793      .   S
    C295   O763      0.76793      .   S
    C305   O764      0.55140      .   S
    C149   O764      0.55140      .   S
    C304   O765      0.55049  1_565   S
    C150   O765      0.55049      .   S
    C304   O766      0.76793      .   S
    C294   O766      0.76793      .   S
    C304   O767      0.55141      .   S
    C148   O767      0.55141      .   S
    C281   O768      0.76522      .   S
    C295   O768      0.76522      .   S
    C281   O769      0.73293      .   S
    C336   O769      0.73293  1_455   S
    C281   O770      0.54938      .   S
    C129   O770      0.54938      .   S
    C280   O771      0.76521      .   S
    C294   O771      0.76521      .   S
    C280   O772      0.73276      .   S
    C337   O772      0.73276      .   S
    C280   O773      0.54938      .   S
    C128   O773      0.54938      .   S
    C295   O774      0.55101      .   S
    C141   O774      0.55101      .   S
    C294   O775      0.55101      .   S
    C140   O775      0.55101      .   S
    C209   O776      0.69803      .   S
    C216   O776      0.69803  1_455   S
    C209   O777      0.70048      .   S
    C201   O777      0.70048      .   S
    C208   O778      0.69788      .   S
    C217   O778      0.69788      .   S
    C208   O779      0.70048      .   S
    C200   O779      0.70048      .   S
    C217   O780      0.70060      .   S
    C207   O780      0.70060      .   S
    C216   O781      0.70055      .   S
    C206   O781      0.70055      .   S
    C336   O782      0.69306      .   S
    C300   O782      0.69306      .   S
    C337   O783      0.69306      .   S
    C301   O783      0.69306      .   S
    C289   O784      0.65257      .   S
    C375   O784      0.65257      .   S
    C289   O785      0.75415      .   S
    C287   O785      0.75415      .   S
    C288   O786      0.65257      .   S
    C374   O786      0.65257      .   S
    C288   O787      0.75415      .   S
    C286   O787      0.75415      .   S
    C122   O788      0.54361      .   S
    C274   O788      0.54361      .   S
    C123   O789      0.54361      .   S
    C275   O789      0.54361      .   S
    C124   O790      0.54994      .   S
    C278   O790      0.54994      .   S
    C125   O791      0.54994      .   S
    C279   O791      0.54994      .   S
    C298   O792      0.68594      .   S
    C300   O792      0.68594      .   S
    C298   O793      0.54126      .   S
    C142   O793      0.54126      .   S
    C299   O794      0.68595      .   S
    C301   O794      0.68595      .   S
    C299   O795      0.54126      .   S
    C143   O795      0.54126      .   S
    C356   O796      0.68411      .   S
    C200   O796      0.68411      .   S
    C357   O797      0.68411      .   S
    C201   O797      0.68411      .   S
    C126   O798      0.55027      .   S
    C278   O798      0.55027      .   S
    C127   O799      0.55028      .   S
    C279   O799      0.55028      .   S
    C206   O800      0.54312      .   S
    C56    O800      0.54312      .   S
    C207   O801      0.54312      .   S
    C57    O801      0.54312      .   S
    C287   O802      0.70213      .   S
    C274   O802      0.70213  1_455   S
    C286   O803      0.70198      .   S
    C275   O803      0.70198      .   S
