# CIF file generated by openbabel 2.4.90, see http://openbabel.sf.net
data_I
_chemical_name_common ''
_cell_length_a 14.594
_cell_length_b 16.877
_cell_length_c 17.459
_cell_angle_alpha 90.002
_cell_angle_beta 95.55
_cell_angle_gamma 90.028
_space_group_name_H-M_alt 'P 1'
_space_group_name_Hall 'P 1'
loop_
    _symmetry_equiv_pos_as_xyz
    x,y,z
loop_
    _atom_site_label
    _atom_site_type_symbol
    _atom_site_fract_x
    _atom_site_fract_y
    _atom_site_fract_z
    _atom_site_occupancy
    N0      N    0.49999   0.99998   0.50000   1.000
    N1      N    0.59650   0.57562   0.33675   1.000
    N2      N    0.84666   0.92421   0.83660   1.000
    N3      N    0.09651   0.57562   0.33675   1.000
    N4      N    0.15332   0.07542   0.16341   1.000
    N5      N    0.99999   0.99998   0.50001   1.000
    N6      N    0.90348   0.42434   0.66325   1.000
    N7      N    0.40348   0.42434   0.66325   1.000
    N8      N    0.24999   0.49998   0.00001   1.000
    N9      N    0.65332   0.07543   0.16340   1.000
    N10     N    0.74999   0.49998   0.00000   1.000
    N11     N    0.34666   0.92421   0.83660   1.000
    Zr12    Zr   0.02594   0.79301   0.29227   1.000
    O13     O    0.17974   0.86104   0.38020   1.000
    O14     O    0.89350   0.73213   0.31545   1.000
    O15     O    0.91267   0.87803   0.26060   1.000
    O16     O    0.06801   0.69611   0.18165   1.000
    Zr17    Zr   0.97404   0.20696   0.70772   1.000
    O18     O    0.82024   0.13893   0.61979   1.000
    O19     O    0.93197   0.30385   0.81835   1.000
    O20     O    0.10648   0.26784   0.68454   1.000
    O21     O    0.08731   0.12186   0.73939   1.000
    Zr22    Zr   0.47405   0.20696   0.70772   1.000
    O23     O    0.43197   0.30385   0.81835   1.000
    O24     O    0.32025   0.13893   0.61979   1.000
    O25     O    0.58730   0.12186   0.73939   1.000
    O26     O    0.60648   0.26784   0.68454   1.000
    Zr27    Zr   0.27584   0.70696   0.79228   1.000
    O28     O    0.31789   0.80387   0.68167   1.000
    O29     O    0.14353   0.76780   0.81544   1.000
    O30     O    0.16266   0.62187   0.76061   1.000
    O31     O    0.42973   0.63894   0.88020   1.000
    Zr32    Zr   0.72414   0.29301   0.20772   1.000
    O33     O    0.57025   0.36103   0.11979   1.000
    O34     O    0.68209   0.19610   0.31833   1.000
    O35     O    0.83732   0.37809   0.23940   1.000
    O36     O    0.85645   0.23208   0.18456   1.000
    Zr37    Zr   0.77583   0.70696   0.79228   1.000
    O38     O    0.81788   0.80387   0.68167   1.000
    O39     O    0.66265   0.62187   0.76061   1.000
    O40     O    0.64352   0.76780   0.81545   1.000
    O41     O    0.92972   0.63894   0.88020   1.000
    Zr42    Zr   0.22415   0.29301   0.20487   1.000
    O43     O    0.18210   0.19610   0.31691   1.000
    O44     O    0.07026   0.36102   0.11838   1.000
    O45     O    0.33733   0.37809   0.23798   1.000
    O46     O    0.35646   0.23208   0.18313   1.000
    Zr47    Zr   0.52594   0.79301   0.29226   1.000
    O48     O    0.39351   0.73213   0.31545   1.000
    O49     O    0.41268   0.87803   0.26059   1.000
    O50     O    0.56801   0.69611   0.18165   1.000
    O51     O    0.67974   0.86104   0.38020   1.000
loop_
    _geom_bond_atom_site_label_1
    _geom_bond_atom_site_label_2
    _geom_bond_distance
    _geom_bond_site_symmetry_2
    _ccdc_geom_bond_type
    Zr12   O13       2.83623      .   S
    N0     O13       5.46037      .   S
    Zr12   O14       2.25931  1_455   S
    N1     O14       5.11891      .   S
    Zr12   O15       2.21864  1_455   S
    N9     O15       5.20339  1_545   S
    Zr12   O16       2.64785      .   S
    N8     O16       5.45024      .   S
    Zr17   O18       2.83622      .   S
    N0     O18       5.46030  1_565   S
    Zr17   O19       2.64794      .   S
    N10    O19       5.45026  1_554   S
    Zr17   O20       2.25930  1_655   S
    N7     O20       5.11882      .   S
    Zr17   O21       2.21956  1_655   S
    N11    O21       5.20614  1_565   S
    Zr22   O23       2.64797      .   S
    N8     O23       5.45024  1_554   S
    Zr22   O24       2.83620      .   S
    N5     O24       5.46034  1_665   S
    Zr22   O25       2.21948      .   S
    N2     O25       5.20610  1_565   S
    Zr22   O26       2.25922      .   S
    N6     O26       5.11880      .   S
    Zr27   O28       2.64754      .   S
    N0     O28       5.44976      .   S
    Zr27   O29       2.25816      .   S
    N2     O29       5.11825  1_655   S
    Zr27   O30       2.21741      .   S
    N6     O30       5.20135  1_655   S
    Zr27   O31       2.83788      .   S
    N10    O31       5.46261  1_554   S
    Zr32   O33       2.83788      .   S
    N8     O33       5.46251      .   S
    Zr32   O34       2.64767      .   S
    N0     O34       5.44985  1_565   S
    Zr32   O35       2.21742      .   S
    N3     O35       5.20131  1_455   S
    Zr32   O36       2.25881      .   S
    N4     O36       5.12040  1_455   S
    Zr37   O38       2.64757      .   S
    N5     O38       5.44984      .   S
    Zr37   O39       2.21738      .   S
    N7     O39       5.20122      .   S
    Zr37   O40       2.25811      .   S
    N11    O40       5.11810      .   S
    Zr37   O41       2.83793      .   S
    N8     O41       5.46278  1_454   S
    Zr42   O43       2.66637      .   S
    N5     O43       5.46560  1_665   S
    Zr42   O44       2.82641      .   S
    N10    O44       5.45533  1_655   S
    Zr42   O45       2.22191      .   S
    N1     O45       5.20760      .   S
    Zr42   O46       2.25238      .   S
    N9     O46       5.11648      .   S
    Zr47   O48       2.25925      .   S
    N3     O48       5.11888      .   S
    Zr47   O49       2.21858      .   S
    N4     O49       5.20335  1_545   S
    Zr47   O50       2.64783      .   S
    N10    O50       5.45018      .   S
    Zr47   O51       2.83623      .   S
    N5     O51       5.46044      .   S
