# CIF file generated by openbabel 2.4.90, see http://openbabel.sf.net
data_I
_chemical_name_common ''
_cell_length_a 11.092
_cell_length_b 16.183
_cell_length_c 17.987
_cell_angle_alpha 90.004
_cell_angle_beta 91.265
_cell_angle_gamma 90
_space_group_name_H-M_alt 'P 1'
_space_group_name_Hall 'P 1'
loop_
    _symmetry_equiv_pos_as_xyz
    x,y,z
loop_
    _atom_site_label
    _atom_site_type_symbol
    _atom_site_fract_x
    _atom_site_fract_y
    _atom_site_fract_z
    _atom_site_occupancy
    N0      N    0.50001   0.50001   0.99994   1.000
    N1      N    0.00001   0.99999   0.50000   1.000
    Zr2     Zr   0.00000   1.00000   1.00000   1.000
    O3      O    0.00119   1.00000   0.15841   1.000
    O4      O    0.99882   0.99999   0.84159   1.000
    O5      O    0.14125   0.86369   0.00005   1.000
    O6      O    0.85876   0.86369   0.99992   1.000
    O7      O    0.14125   0.13631   0.00005   1.000
    O8      O    0.85876   0.13631   0.99992   1.000
loop_
    _geom_bond_atom_site_label_1
    _geom_bond_atom_site_label_2
    _geom_bond_distance
    _geom_bond_site_symmetry_2
    _ccdc_geom_bond_type
    Zr2    O3        2.84910  1_556   S
    N1     O3        6.14447      .   S
    Zr2    O4        2.84909  1_455   S
    N1     O4        6.14444  1_455   S
    Zr2    O5        2.70556  1_556   S
    N0     O5        7.10460  1_556   S
    Zr2    O6        2.70553  1_455   S
    N0     O6        7.10453      .   S
    Zr2    O7        2.70566  1_566   S
    N0     O7        7.10476  1_556   S
    Zr2    O8        2.70562  1_465   S
    N0     O8        7.10469      .   S
