# CIF file generated by openbabel 2.4.90, see http://openbabel.sf.net
data_I
_chemical_name_common ''
_cell_length_a 11.092
_cell_length_b 16.183
_cell_length_c 17.987
_cell_angle_alpha 90.004
_cell_angle_beta 91.265
_cell_angle_gamma 90
_space_group_name_H-M_alt 'P 1'
_space_group_name_Hall 'P 1'
loop_
    _symmetry_equiv_pos_as_xyz
    x,y,z
loop_
    _atom_site_label
    _atom_site_type_symbol
    _atom_site_fract_x
    _atom_site_fract_y
    _atom_site_fract_z
    _atom_site_occupancy
    N0      N    0.50001   0.50001   0.99994   1.000
    N1      N    0.00001   0.99999   0.50000   1.000
    Zr2     Zr   0.00000   1.00000   1.00000   1.000
    O3      O    0.14243   0.86373   0.01743   1.000
    O4      O    0.14243   0.13627   0.01743   1.000
    O5      O    0.85995   0.86366   0.01729   1.000
    O6      O    0.00119   1.00000   0.15841   1.000
    O7      O    0.85995   0.13635   0.01729   1.000
    O8      O    0.14006   0.86366   0.98267   1.000
    O9      O    0.14007   0.13635   0.98267   1.000
    O10     O    0.85758   0.86373   0.98254   1.000
    O11     O    0.99882   0.99999   0.84159   1.000
    O12     O    0.85758   0.13627   0.98254   1.000
loop_
    _geom_bond_atom_site_label_1
    _geom_bond_atom_site_label_2
    _geom_bond_distance
    _geom_bond_site_symmetry_2
    _ccdc_geom_bond_type
    Zr2    O3        2.72675  1_556   S
    N0     O3        7.10857  1_556   S
    Zr2    O4        2.72683  1_566   S
    N0     O4        7.10874  1_556   S
    Zr2    O5        2.72025  1_456   S
    N0     O5        7.11438  1_556   S
    Zr2    O6        2.84910  1_556   S
    N1     O6        6.14447      .   S
    Zr2    O7        2.72033  1_466   S
    N0     O7        7.11455  1_556   S
    Zr2    O8        2.72036      .   S
    N0     O8        7.11437      .   S
    Zr2    O9        2.72046  1_565   S
    N0     O9        7.11452      .   S
    Zr2    O10       2.72680  1_455   S
    N0     O10       7.10842      .   S
    Zr2    O11       2.84909  1_455   S
    N1     O11       6.14444  1_455   S
    Zr2    O12       2.72690  1_465   S
    N0     O12       7.10857      .   S
