# CIF file generated by openbabel 2.4.90, see http://openbabel.sf.net
data_I
_chemical_name_common ''
_cell_length_a 11.092
_cell_length_b 16.183
_cell_length_c 17.987
_cell_angle_alpha 90.004
_cell_angle_beta 91.265
_cell_angle_gamma 90
_space_group_name_H-M_alt 'P 1'
_space_group_name_Hall 'P 1'
loop_
    _symmetry_equiv_pos_as_xyz
    x,y,z
loop_
    _atom_site_label
    _atom_site_type_symbol
    _atom_site_fract_x
    _atom_site_fract_y
    _atom_site_fract_z
    _atom_site_occupancy
    Zr0     Zr   0.99507   1.00000   0.92404   1.000
    Zr1     Zr   0.00494   0.00000   0.07595   1.000
    O2      O    0.00000   1.00000   0.00000   1.000
    N3      N    0.50001   0.50001   0.99994   1.000
    O4      O    0.71515   0.72746   0.96508   1.000
    O5      O    0.71989   0.72732   0.03459   1.000
    O6      O    0.28486   0.72747   0.03485   1.000
    O7      O    0.28013   0.72731   0.96534   1.000
    O8      O    0.28486   0.27255   0.03485   1.000
    O9      O    0.28013   0.27269   0.96534   1.000
    O10     O    0.71515   0.27255   0.96508   1.000
    O11     O    0.71989   0.27270   0.03459   1.000
    N12     N    0.00001   0.99999   0.50000   1.000
    O13     O    0.99764   0.99999   0.68318   1.000
    O14     O    0.00237   0.99999   0.31682   1.000
loop_
    _geom_bond_atom_site_label_1
    _geom_bond_atom_site_label_2
    _geom_bond_distance
    _geom_bond_site_symmetry_2
    _ccdc_geom_bond_type
    Zr0    O2        1.36611  1_656   S
    Zr1    O2        1.36607  1_545   S
    N3     O4        4.43882      .   S
    Zr0    O4        5.45329      .   S
    N3     O5        4.44985  1_556   S
    Zr1    O5        5.46981  1_445   S
    N3     O6        4.43901  1_556   S
    Zr1    O6        5.45342  1_545   S
    N3     O7        4.44974      .   S
    Zr0    O7        5.46981  1_655   S
    N3     O8        4.43909  1_556   S
    Zr1    O8        5.45365      .   S
    N3     O9        4.44978      .   S
    Zr0    O9        5.46995  1_665   S
    N3     O10       4.43887      .   S
    Zr0    O10       5.45343  1_565   S
    N3     O11       4.44994  1_556   S
    Zr1    O11       5.47003  1_455   S
    N12    O13       3.29548  1_455   S
    Zr0    O13       4.33321      .   S
    N12    O14       3.29549      .   S
    Zr1    O14       4.33323  1_545   S
