# CIF file generated by openbabel 2.4.90, see http://openbabel.sf.net
data_I
_chemical_name_common ''
_cell_length_a 14.124
_cell_length_b 14.14
_cell_length_c 14.122
_cell_angle_alpha 104.886
_cell_angle_beta 104.722
_cell_angle_gamma 104.841
_space_group_name_H-M_alt 'P 1'
_space_group_name_Hall 'P 1'
loop_
    _symmetry_equiv_pos_as_xyz
    x,y,z
loop_
    _atom_site_label
    _atom_site_type_symbol
    _atom_site_fract_x
    _atom_site_fract_y
    _atom_site_fract_z
    _atom_site_occupancy
    Ag0     Ag   0.47852   0.21289   0.21275   1.000
    Ag1     Ag   0.21271   0.47822   0.21272   1.000
    Ag2     Ag   0.78734   0.78721   0.52170   1.000
    Ag3     Ag   0.78728   0.52179   0.78724   1.000
    Ag4     Ag   0.52147   0.78713   0.78720   1.000
    Ag5     Ag   0.72444   0.99997   0.27553   1.000
    Ag6     Ag   0.27584   0.72440   0.00000   1.000
    Ag7     Ag   0.00002   0.27575   0.72399   1.000
    Ag8     Ag   0.27555   0.00003   0.72442   1.000
    Ag9     Ag   0.72415   0.27562   0.99999   1.000
    Ag10    Ag   0.99999   0.72427   0.27596   1.000
    Ag11    Ag   0.21265   0.21280   0.47826   1.000
