# CIF file generated by openbabel 2.4.90, see http://openbabel.sf.net
data_I
_chemical_name_common ''
_cell_length_a 14.273
_cell_length_b 15.94
_cell_length_c 19.73
_cell_angle_alpha 110.743
_cell_angle_beta 89.833
_cell_angle_gamma 116.784
_space_group_name_H-M_alt 'P 1'
_space_group_name_Hall 'P 1'
loop_
    _symmetry_equiv_pos_as_xyz
    x,y,z
loop_
    _atom_site_label
    _atom_site_type_symbol
    _atom_site_fract_x
    _atom_site_fract_y
    _atom_site_fract_z
    _atom_site_occupancy
    Zn0     Zn   0.55495   0.46029   0.19001   1.000
    Zn1     Zn   0.63539   0.54410   0.60554   1.000
    Zn2     Zn   0.09454   0.53976   0.30968   1.000
    Zn3     Zn   0.90936   0.54377   0.10490   1.000
    Zn4     Zn   0.44508   0.53975   0.80984   1.000
    Zn5     Zn   0.36461   0.45587   0.39426   1.000
    Zn6     Zn   0.90549   0.46028   0.69017   1.000
    Zn7     Zn   0.09066   0.45625   0.89493   1.000
    C8      C    0.47540   0.58409   0.67593   1.000
    C9      C    0.09893   0.53521   0.67343   1.000
    C10     C    0.21338   0.44249   0.77519   1.000
    C11     C    0.28093   0.44014   0.51940   1.000
    C12     C    0.89085   0.41609   0.82410   1.000
    C13     C    0.56382   0.46550   0.82682   1.000
    C14     C    0.77138   0.55754   0.72496   1.000
    O15     O    0.91983   0.61042   0.03766   1.000
    O16     O    0.46311   0.39228   0.36853   1.000
    O17     O    0.52179   0.47138   0.29159   1.000
    O18     O    0.70284   0.48079   0.17941   1.000
    C19     C    0.84182   0.56016   0.98044   1.000
    C20     C    0.52463   0.41592   0.32389   1.000
    C21     C    0.90109   0.46478   0.32638   1.000
    C22     C    0.78665   0.55752   0.22465   1.000
    C23     C    0.71913   0.55984   0.48040   1.000
    C24     C    0.10917   0.58392   0.17568   1.000
    C25     C    0.43619   0.53451   0.17300   1.000
    C26     C    0.22863   0.44248   0.27486   1.000
    C27     C    0.15820   0.43985   0.01938   1.000
    O28     O    0.53688   0.60769   0.63126   1.000
    O29     O    0.47828   0.52867   0.70826   1.000
    O30     O    0.29719   0.51924   0.82041   1.000
    O31     O    0.12353   0.40302   0.79440   1.000
    O32     O    0.04263   0.58172   0.69618   1.000
    O33     O    0.05648   0.43954   0.64405   1.000
    O34     O    0.28122   0.52175   0.52984   1.000
    O35     O    0.30671   0.38905   0.46130   1.000
    O36     O    0.92835   0.39280   0.86896   1.000
    O37     O    0.94964   0.47119   0.79150   1.000
    O38     O    0.77832   0.48086   0.67963   1.000
    O39     O    0.72092   0.59674   0.70596   1.000
    O40     O    0.46086   0.41893   0.80402   1.000
    O41     O    0.61743   0.56113   0.85622   1.000
    O42     O    0.75948   0.47934   0.97078   1.000
    O43     O    0.87651   0.59698   0.20546   1.000
    O44     O    0.95739   0.41827   0.30360   1.000
    O45     O    0.94354   0.56045   0.35576   1.000
    O46     O    0.71889   0.47825   0.46990   1.000
    O47     O    0.69329   0.61090   0.53850   1.000
    O48     O    0.07166   0.60719   0.13085   1.000
    O49     O    0.05040   0.52885   0.20827   1.000
    O50     O    0.22172   0.51918   0.32019   1.000
    O51     O    0.27906   0.40326   0.29387   1.000
    O52     O    0.53916   0.58107   0.19570   1.000
    O53     O    0.38257   0.43888   0.14362   1.000
    O54     O    0.24055   0.52065   0.02902   1.000
    O55     O    0.08014   0.38961   0.96219   1.000
loop_
    _geom_bond_atom_site_label_1
    _geom_bond_atom_site_label_2
    _geom_bond_distance
    _geom_bond_site_symmetry_2
    _ccdc_geom_bond_type
    C27    O54       1.24094      .   S
    C27    O55       1.31105  1_554   S
    O15    Zn3       1.94043      .   S
    O15    C19       1.31108  1_554   S
    Zn3    O48       2.04453  1_655   S
    Zn3    O43       2.00911      .   S
    O48    C24       1.27308      .   S
    O53    C25       1.25324      .   S
    C25    O52       1.30260      .   S
    C24    O49       1.27304      .   S
    O18    Zn0       2.00748      .   S
    O18    C22       1.27982      .   S
    Zn0    O52       2.00198      .   S
    Zn0    O17       2.02260      .   S
    O43    C22       1.27389      .   S
    O49    Zn2       2.02307      .   S
    C26    O51       1.27394      .   S
    C26    O50       1.27989      .   S
    O17    C20       1.27309      .   S
    O51    Zn5       2.00799      .   S
    O44    Zn2       2.00415  1_655   S
    O44    C21       1.30246      .   S
    Zn2    O50       2.00806      .   S
    C20    O16       1.27330      .   S
    C21    O45       1.25373      .   S
    O16    Zn5       2.04385      .   S
    Zn5    O35       1.94043      .   S
    O35    C11       1.31112      .   S
    O46    C23       1.24073      .   S
    C23    O47       1.31131      .   S
    C11    O34       1.24098      .   S
    O47    Zn1       1.94020      .   S
    Zn1    O28       2.04387      .   S
    Zn1    O39       2.00826      .   S
    O28    C8        1.27325      .   S
    O33    C9        1.25372      .   S
    C9     O32       1.30239      .   S
    C8     O29       1.27315      .   S
    O38    Zn6       2.00808      .   S
    O38    C14       1.27989      .   S
    Zn6    O32       2.00423  1_655   S
    Zn6    O37       2.02154      .   S
    O39    C14       1.27387      .   S
    O29    Zn4       2.02275      .   S
    C10    O31       1.27391      .   S
    C10    O30       1.27975      .   S
    O37    C12       1.27356      .   S
    O31    Zn7       2.00885      .   S
    O40    Zn4       2.00165      .   S
    O40    C13       1.30280      .   S
    Zn4    O30       2.00745      .   S
    C12    O36       1.27371      .   S
    C13    O41       1.25324      .   S
    O36    Zn7       2.04455  1_655   S
    Zn7    O55       1.94047      .   S
    O42    C19       1.24094      .   S
