# CIF file generated by openbabel 2.4.90, see http://openbabel.sf.net
data_I
_chemical_name_common ''
_cell_length_a 14.273
_cell_length_b 15.94
_cell_length_c 19.73
_cell_angle_alpha 110.743
_cell_angle_beta 89.833
_cell_angle_gamma 116.784
_space_group_name_H-M_alt 'P 1'
_space_group_name_Hall 'P 1'
loop_
    _symmetry_equiv_pos_as_xyz
    x,y,z
loop_
    _atom_site_label
    _atom_site_type_symbol
    _atom_site_fract_x
    _atom_site_fract_y
    _atom_site_fract_z
    _atom_site_occupancy
    C0      C    0.47540   0.58409   0.67593   1.000
    C1      C    0.09893   0.53521   0.67343   1.000
    C2      C    0.21338   0.44249   0.77519   1.000
    C3      C    0.28093   0.44014   0.51940   1.000
    C4      C    0.89085   0.41609   0.82410   1.000
    C5      C    0.56382   0.46550   0.82682   1.000
    C6      C    0.77138   0.55754   0.72496   1.000
    C7      C    0.84182   0.56016   0.98044   1.000
    C8      C    0.52463   0.41592   0.32389   1.000
    C9      C    0.90109   0.46478   0.32638   1.000
    C10     C    0.78665   0.55752   0.22465   1.000
    C11     C    0.71913   0.55984   0.48040   1.000
    C12     C    0.10917   0.58392   0.17568   1.000
    C13     C    0.43619   0.53451   0.17300   1.000
    C14     C    0.22863   0.44248   0.27486   1.000
    C15     C    0.15820   0.43985   0.01938   1.000
