# CIF file generated by openbabel 2.4.90, see http://openbabel.sf.net
data_I
_chemical_name_common ''
_cell_length_a 14.273
_cell_length_b 15.94
_cell_length_c 19.73
_cell_angle_alpha 110.743
_cell_angle_beta 89.833
_cell_angle_gamma 116.784
_space_group_name_H-M_alt 'P 1'
_space_group_name_Hall 'P 1'
loop_
    _symmetry_equiv_pos_as_xyz
    x,y,z
loop_
    _atom_site_label
    _atom_site_type_symbol
    _atom_site_fract_x
    _atom_site_fract_y
    _atom_site_fract_z
    _atom_site_occupancy
    Zr0     Zr   0.09066   0.45625   0.89493   1.000
    Zr1     Zr   0.55495   0.46029   0.19001   1.000
    Zr2     Zr   0.63539   0.54410   0.60554   1.000
    Zr3     Zr   0.09454   0.53976   0.30968   1.000
    Zr4     Zr   0.90936   0.54377   0.10490   1.000
    Zr5     Zr   0.44508   0.53975   0.80984   1.000
    Zr6     Zr   0.36461   0.45587   0.39426   1.000
    Zr7     Zr   0.90549   0.46028   0.69017   1.000
    N8      N    0.30950   0.95673   0.03261   1.000
    O9      O    0.41189   0.16892   0.09831   1.000
    O10     O    0.21535   0.74532   0.97267   1.000
    N11     N    0.72418   0.49710   0.33916   1.000
    N12     N    0.64717   0.95653   0.53270   1.000
    O13     O    0.75697   0.16879   0.59847   1.000
    O14     O    0.52975   0.74505   0.47246   1.000
    N15     N    0.27583   0.50290   0.66065   1.000
    N16     N    0.35282   0.04348   0.46713   1.000
    O17     O    0.24304   0.83123   0.40137   1.000
    O18     O    0.47024   0.25495   0.52735   1.000
    N19     N    0.77226   0.49744   0.83939   1.000
    N20     N    0.22691   0.50258   0.16043   1.000
    N21     N    0.69052   0.04329   0.96716   1.000
    O22     O    0.58814   0.83110   0.90149   1.000
    O23     O    0.78467   0.25470   0.02710   1.000
    C24     C    0.92295   0.42669   0.82819   1.000
    O25     O    0.92525   0.44621   0.78451   1.000
    O26     O    0.96623   0.42561   0.85507   1.000
    O27     O    0.86243   0.43662   0.82832   1.000
    C28     C    0.71044   0.54966   0.49627   1.000
    O29     O    0.71981   0.54525   0.44613   1.000
    O30     O    0.68739   0.56358   0.53414   1.000
    C31     C    0.75687   0.54505   0.70352   1.000
    O32     O    0.71751   0.55773   0.67963   1.000
    O33     O    0.79939   0.50781   0.69421   1.000
    O34     O    0.77113   0.54257   0.75277   1.000
    C35     C    0.54737   0.48185   0.82902   1.000
    O36     O    0.50017   0.48060   0.81798   1.000
    O37     O    0.61431   0.47346   0.82933   1.000
    C38     C    0.49685   0.57348   0.67182   1.000
    O39     O    0.47927   0.55385   0.71543   1.000
    O40     O    0.42656   0.56361   0.67172   1.000
    O41     O    0.54149   0.57469   0.64511   1.000
    C42     C    0.21137   0.45492   0.79667   1.000
    O43     O    0.22846   0.45753   0.74736   1.000
    O44     O    0.15923   0.44228   0.82067   1.000
    O45     O    0.29125   0.49220   0.80590   1.000
    C46     C    0.15963   0.45004   0.00353   1.000
    O47     O    0.12252   0.43648   0.96605   1.000
    O48     O    0.17368   0.45445   0.05361   1.000
    C49     C    0.06601   0.51882   0.67122   1.000
    O50     O    0.02004   0.51991   0.68220   1.000
    O51     O    0.14155   0.52712   0.67086   1.000
    C52     C    0.93401   0.48117   0.32858   1.000
    O53     O    0.85847   0.47287   0.32894   1.000
    O54     O    0.97999   0.48009   0.31761   1.000
    C55     C    0.24314   0.45497   0.29631   1.000
    O56     O    0.22867   0.45745   0.24706   1.000
    O57     O    0.20063   0.49222   0.30562   1.000
    O58     O    0.28249   0.44227   0.32019   1.000
    C59     C    0.28962   0.45032   0.50351   1.000
    O60     O    0.28023   0.45474   0.55367   1.000
    O61     O    0.31264   0.43639   0.46565   1.000
    C62     C    0.45264   0.51815   0.17077   1.000
    O63     O    0.38549   0.52655   0.17047   1.000
    O64     O    0.49985   0.51941   0.18181   1.000
    C65     C    0.50318   0.42653   0.32800   1.000
    O66     O    0.57347   0.43640   0.32809   1.000
    O67     O    0.45852   0.42530   0.35470   1.000
    O68     O    0.52077   0.44618   0.28440   1.000
    C69     C    0.84037   0.54997   0.99629   1.000
    O70     O    0.82612   0.54556   0.94621   1.000
    O71     O    0.87748   0.56353   0.03379   1.000
    C72     C    0.78867   0.54509   0.20317   1.000
    O73     O    0.77156   0.54248   0.25247   1.000
    O74     O    0.70878   0.50781   0.19394   1.000
    O75     O    0.84080   0.55773   0.17918   1.000
    C76     C    0.07707   0.57332   0.17160   1.000
    O77     O    0.03379   0.57440   0.14474   1.000
    O78     O    0.07477   0.55381   0.21529   1.000
    O79     O    0.13737   0.56339   0.17148   1.000
loop_
    _geom_bond_atom_site_label_1
    _geom_bond_atom_site_label_2
    _geom_bond_distance
    _geom_bond_site_symmetry_2
    _ccdc_geom_bond_type
    N8     O9        2.77614  1_565   S
    Zr1    O9        3.81250      .   S
    N8     O10       2.76857  1_554   S
    Zr0    O10       3.79087      .   S
    N12    O13       2.77679  1_565   S
    Zr7    O13       3.81395      .   S
    N12    O14       2.76888      .   S
    Zr6    O14       3.79141      .   S
    N16    O17       2.77666  1_545   S
    Zr3    O17       3.81373      .   S
    N16    O18       2.76874      .   S
    Zr2    O18       3.79117      .   S
    N21    O22       2.77605  1_545   S
    Zr5    O22       3.81233      .   S
    N21    O23       2.76856  1_556   S
    Zr4    O23       3.79085      .   S
    C24    O25       1.01045      .   S
    Zr7    O25       1.98750      .   S
    C24    O26       0.82531      .   S
    Zr0    O26       1.72209  1_455   S
    C24    O27       0.94547      .   S
    N19    O27       1.90181      .   S
    C28    O29       0.97973      .   S
    N11    O29       1.98550      .   S
    C28    O30       0.81413      .   S
    Zr2    O30       1.65156      .   S
    C31    O32       0.86601      .   S
    Zr2    O32       1.76454      .   S
    C31    O33       1.00056      .   S
    Zr7    O33       1.96575      .   S
    C31    O34       1.01135      .   S
    N19    O34       2.07852      .   S
    C35    O36       0.69810      .   S
    Zr5    O36       1.51956      .   S
    C35    O37       1.02311      .   S
    N19    O37       2.10709      .   S
    C38    O39       1.01008      .   S
    Zr5    O39       1.98755      .   S
    C38    O40       0.94276      .   S
    N15    O40       1.89448      .   S
    C38    O41       0.82354      .   S
    Zr2    O41       1.71941      .   S
    C42    O43       1.01291      .   S
    N15    O43       2.08220      .   S
    C42    O44       0.86542      .   S
    Zr0    O44       1.76393      .   S
    C42    O45       1.00012      .   S
    Zr5    O45       1.96487      .   S
    C46    O47       0.81256  1_554   S
    Zr0    O47       1.64945      .   S
    C46    O48       0.98022      .   S
    N20    O48       1.98651      .   S
    C49    O50       0.69616      .   S
    Zr7    O50       1.51830  1_655   S
    C49    O51       1.02563      .   S
    N15    O51       2.11495      .   S
    C52    O53       1.02566      .   S
    N11    O53       2.11505      .   S
    C52    O54       0.69608      .   S
    Zr3    O54       1.51813  1_455   S
    C55    O56       1.01203      .   S
    N20    O56       2.07997      .   S
    C55    O57       1.00051      .   S
    Zr3    O57       1.96567      .   S
    C55    O58       0.86606      .   S
    Zr6    O58       1.76448      .   S
    C59    O60       0.98001      .   S
    N15    O60       1.98583      .   S
    C59    O61       0.81378      .   S
    Zr6    O61       1.65123      .   S
    C62    O63       1.02610      .   S
    N20    O63       2.11608      .   S
    C62    O64       0.69814      .   S
    Zr1    O64       1.51981      .   S
    C65    O66       0.94274      .   S
    N11    O66       1.89438      .   S
    C65    O67       0.82353      .   S
    Zr6    O67       1.71938      .   S
    C65    O68       1.00994      .   S
    Zr1    O68       1.98729      .   S
    C69    O70       0.98077      .   S
    N19    O70       1.98842      .   S
    C69    O71       0.81260  1_556   S
    Zr4    O71       1.64949      .   S
    C72    O73       1.01276      .   S
    N11    O73       2.08184      .   S
    C72    O74       1.00012      .   S
    Zr1    O74       1.96487      .   S
    C72    O75       0.86536      .   S
    Zr4    O75       1.76396      .   S
    C76    O77       0.82511      .   S
    Zr4    O77       1.72201  1_655   S
    C76    O78       1.01056      .   S
    Zr3    O78       1.98843      .   S
    C76    O79       0.94246      .   S
    N20    O79       1.89353      .   S
