# CIF file generated by openbabel 2.4.90, see http://openbabel.sf.net
data_I
_chemical_name_common ''
_cell_length_a 14.273
_cell_length_b 15.94
_cell_length_c 19.73
_cell_angle_alpha 110.743
_cell_angle_beta 89.833
_cell_angle_gamma 116.784
_space_group_name_H-M_alt 'P 1'
_space_group_name_Hall 'P 1'
loop_
    _symmetry_equiv_pos_as_xyz
    x,y,z
loop_
    _atom_site_label
    _atom_site_type_symbol
    _atom_site_fract_x
    _atom_site_fract_y
    _atom_site_fract_z
    _atom_site_occupancy
    Zr0     Zr   0.09066   0.45625   0.89493   1.000
    Zr1     Zr   0.55495   0.46029   0.19001   1.000
    Zr2     Zr   0.63539   0.54410   0.60554   1.000
    Zr3     Zr   0.09454   0.53976   0.30968   1.000
    Zr4     Zr   0.90936   0.54377   0.10490   1.000
    Zr5     Zr   0.44508   0.53975   0.80984   1.000
    Zr6     Zr   0.36461   0.45587   0.39426   1.000
    Zr7     Zr   0.90549   0.46028   0.69017   1.000
    Zr8     Zr   0.47540   0.58409   0.67593   1.000
    Zr9     Zr   0.09893   0.53521   0.67343   1.000
    Zr10    Zr   0.21338   0.44249   0.77519   1.000
    Zr11    Zr   0.28093   0.44014   0.51940   1.000
    Zr12    Zr   0.89085   0.41609   0.82410   1.000
    Zr13    Zr   0.56382   0.46550   0.82682   1.000
    Zr14    Zr   0.77138   0.55754   0.72496   1.000
    Zr15    Zr   0.84182   0.56016   0.98044   1.000
    Zr16    Zr   0.52463   0.41592   0.32389   1.000
    Zr17    Zr   0.90109   0.46478   0.32638   1.000
    Zr18    Zr   0.78665   0.55752   0.22465   1.000
    Zr19    Zr   0.71913   0.55984   0.48040   1.000
    Zr20    Zr   0.10917   0.58392   0.17568   1.000
    Zr21    Zr   0.43619   0.53451   0.17300   1.000
    Zr22    Zr   0.22863   0.44248   0.27486   1.000
    Zr23    Zr   0.15820   0.43985   0.01938   1.000
    Zr24    Zr   0.53688   0.60769   0.63126   1.000
    Zr25    Zr   0.47828   0.52867   0.70826   1.000
    Zr26    Zr   0.29719   0.51924   0.82041   1.000
    Zr27    Zr   0.12353   0.40302   0.79440   1.000
    Zr28    Zr   0.04263   0.58172   0.69618   1.000
    Zr29    Zr   0.05648   0.43954   0.64405   1.000
    Zr30    Zr   0.28122   0.52175   0.52984   1.000
    Zr31    Zr   0.30671   0.38905   0.46130   1.000
    Zr32    Zr   0.92835   0.39280   0.86896   1.000
    Zr33    Zr   0.94964   0.47119   0.79150   1.000
    Zr34    Zr   0.77832   0.48086   0.67963   1.000
    Zr35    Zr   0.72092   0.59674   0.70596   1.000
    Zr36    Zr   0.46086   0.41893   0.80402   1.000
    Zr37    Zr   0.61743   0.56113   0.85622   1.000
    Zr38    Zr   0.75948   0.47934   0.97078   1.000
    Zr39    Zr   0.91983   0.61042   0.03766   1.000
    Zr40    Zr   0.46311   0.39228   0.36853   1.000
    Zr41    Zr   0.52179   0.47138   0.29159   1.000
    Zr42    Zr   0.70284   0.48079   0.17941   1.000
    Zr43    Zr   0.87651   0.59698   0.20546   1.000
    Zr44    Zr   0.95739   0.41827   0.30360   1.000
    Zr45    Zr   0.94354   0.56045   0.35576   1.000
    Zr46    Zr   0.71889   0.47825   0.46990   1.000
    Zr47    Zr   0.69329   0.61090   0.53850   1.000
    Zr48    Zr   0.07166   0.60719   0.13085   1.000
    Zr49    Zr   0.05040   0.52885   0.20827   1.000
    Zr50    Zr   0.22172   0.51918   0.32019   1.000
    Zr51    Zr   0.27906   0.40326   0.29387   1.000
    Zr52    Zr   0.53916   0.58107   0.19570   1.000
    Zr53    Zr   0.38257   0.43888   0.14362   1.000
    Zr54    Zr   0.24055   0.52065   0.02902   1.000
    Zr55    Zr   0.08014   0.38961   0.96219   1.000
    O56     O    0.19938   0.48025   0.02420   1.000
    O57     O    0.11917   0.41473   0.99079   1.000
    O58     O    0.91459   0.57710   0.07128   1.000
    O59     O    0.88082   0.58529   0.00905   1.000
    O60     O    0.99051   0.57548   0.11788   1.000
    O61     O    0.89293   0.57037   0.15518   1.000
    O62     O    0.09041   0.59555   0.15327   1.000
    O63     O    0.40938   0.48669   0.15831   1.000
    O64     O    0.48768   0.55779   0.18435   1.000
    O65     O    0.07978   0.55639   0.19198   1.000
    O66     O    0.62890   0.47054   0.18471   1.000
    O67     O    0.74474   0.51915   0.20203   1.000
    O68     O    0.54706   0.52068   0.19286   1.000
    O69     O    0.53837   0.46583   0.24080   1.000
    O70     O    0.83158   0.57725   0.21506   1.000
    O71     O    0.07247   0.53430   0.25898   1.000
    O72     O    0.25385   0.42287   0.28436   1.000
    O73     O    0.22517   0.48083   0.29753   1.000
    O74     O    0.52321   0.44365   0.30774   1.000
    O75     O    0.32184   0.42956   0.34407   1.000
    O76     O    0.02597   0.47901   0.30664   1.000
    O77     O    0.92924   0.44153   0.31499   1.000
    O78     O    0.15813   0.52947   0.31494   1.000
    O79     O    0.49387   0.40410   0.34621   1.000
    O80     O    0.92232   0.51262   0.34107   1.000
    O81     O    0.41386   0.42408   0.38140   1.000
    O82     O    0.33566   0.42246   0.42778   1.000
    O83     O    0.29382   0.41460   0.49035   1.000
    O84     O    0.71901   0.51905   0.47515   1.000
    O85     O    0.70621   0.58537   0.50945   1.000
    O86     O    0.28108   0.48095   0.52462   1.000
    O87     O    0.66434   0.57750   0.57202   1.000
    O88     O    0.58614   0.57589   0.61840   1.000
    O89     O    0.67815   0.57042   0.65575   1.000
    O90     O    0.50614   0.59589   0.65360   1.000
    O91     O    0.07771   0.48737   0.65874   1.000
    O92     O    0.07078   0.55846   0.68481   1.000
    O93     O    0.47684   0.55638   0.69210   1.000
    O94     O    0.84190   0.47057   0.68490   1.000
    O95     O    0.77485   0.51920   0.70230   1.000
    O96     O    0.97406   0.52100   0.69318   1.000
    O97     O    0.92756   0.46573   0.74084   1.000
    O98     O    0.74615   0.57714   0.71546   1.000
    O99     O    0.46168   0.53421   0.75905   1.000
    O100    O    0.16846   0.42275   0.78480   1.000
    O101    O    0.25529   0.48086   0.79780   1.000
    O102    O    0.92024   0.44364   0.80780   1.000
    O103    O    0.10710   0.42964   0.84467   1.000
    O104    O    0.45297   0.47934   0.80693   1.000
    O105    O    0.51234   0.44222   0.81542   1.000
    O106    O    0.37114   0.52949   0.81513   1.000
    O107    O    0.90960   0.40444   0.84653   1.000
    O108    O    0.59063   0.51332   0.84152   1.000
    O109    O    0.00950   0.42452   0.88195   1.000
    O110    O    0.08540   0.42293   0.92856   1.000
    O111    O    0.80065   0.51975   0.97561   1.000
    N112    N    0.30950   0.95673   0.03261   1.000
    O113    O    0.41189   0.16892   0.09831   1.000
    O114    O    0.21535   0.74532   0.97267   1.000
    N115    N    0.72418   0.49710   0.33916   1.000
    O116    O    0.72919   0.54084   0.39599   1.000
    O117    O    0.64375   0.44627   0.32819   1.000
    O118    O    0.75446   0.53986   0.30178   1.000
    O119    O    0.78294   0.46457   0.32930   1.000
    N120    N    0.64717   0.95653   0.53270   1.000
    O121    O    0.75697   0.16879   0.59847   1.000
    O122    O    0.52975   0.74505   0.47246   1.000
    N123    N    0.27583   0.50290   0.66065   1.000
    O124    O    0.27085   0.45916   0.60382   1.000
    O125    O    0.35627   0.55373   0.67163   1.000
    O126    O    0.21708   0.53542   0.67051   1.000
    O127    O    0.24556   0.46014   0.69804   1.000
    N128    N    0.35282   0.04348   0.46713   1.000
    O129    O    0.24304   0.83123   0.40137   1.000
    O130    O    0.47024   0.25495   0.52735   1.000
    N131    N    0.77226   0.49744   0.83939   1.000
    O132    O    0.78538   0.54008   0.80202   1.000
    O133    O    0.68126   0.46506   0.82965   1.000
    O134    O    0.81187   0.54115   0.89612   1.000
    O135    O    0.80192   0.44655   0.82846   1.000
    N136    N    0.22691   0.50258   0.16043   1.000
    O137    O    0.19767   0.55346   0.17135   1.000
    O138    O    0.31834   0.53495   0.17017   1.000
    O139    O    0.21420   0.45994   0.19780   1.000
    O140    O    0.18772   0.45886   0.10370   1.000
    N141    N    0.69052   0.04329   0.96716   1.000
    O142    O    0.58814   0.83110   0.90149   1.000
    O143    O    0.78467   0.25470   0.02710   1.000
loop_
    _geom_bond_atom_site_label_1
    _geom_bond_atom_site_label_2
    _geom_bond_distance
    _geom_bond_site_symmetry_2
    _ccdc_geom_bond_type
    Zr23   O56       0.62047      .   S
    Zr54   O56       0.62047      .   S
    Zr23   O57       0.65553  1_554   S
    Zr55   O57       0.65553      .   S
    Zr39   O58       0.97022      .   S
    Zr4    O58       0.97022      .   S
    Zr39   O59       0.65554      .   S
    Zr15   O59       0.65554  1_556   S
    Zr4    O60       1.02227      .   S
    Zr48   O60       1.02227  1_455   S
    Zr4    O61       1.00456      .   S
    Zr43   O61       1.00456      .   S
    Zr48   O62       0.63654      .   S
    Zr20   O62       0.63654      .   S
    Zr53   O63       0.62662      .   S
    Zr21   O63       0.62662      .   S
    Zr21   O64       0.65130      .   S
    Zr52   O64       0.65130      .   S
    Zr20   O65       0.63652      .   S
    Zr49   O65       0.63652      .   S
    Zr42   O66       1.00374      .   S
    Zr1    O66       1.00374      .   S
    Zr42   O67       0.63991      .   S
    Zr18   O67       0.63991      .   S
    Zr1    O68       1.00099      .   S
    Zr52   O68       1.00099      .   S
    Zr1    O69       1.01130      .   S
    Zr41   O69       1.01130      .   S
    Zr43   O70       0.63695      .   S
    Zr18   O70       0.63695      .   S
    Zr49   O71       1.01153      .   S
    Zr3    O71       1.01153      .   S
    Zr22   O72       0.63697      .   S
    Zr51   O72       0.63697      .   S
    Zr22   O73       0.63994      .   S
    Zr50   O73       0.63994      .   S
    Zr41   O74       0.63654      .   S
    Zr16   O74       0.63654      .   S
    Zr51   O75       1.00399      .   S
    Zr6    O75       1.00399      .   S
    Zr44   O76       1.00208  1_655   S
    Zr3    O76       1.00208      .   S
    Zr44   O77       0.65123      .   S
    Zr17   O77       0.65123      .   S
    Zr3    O78       1.00403      .   S
    Zr50   O78       1.00403      .   S
    Zr16   O79       0.63665      .   S
    Zr40   O79       0.63665      .   S
    Zr17   O80       0.62687      .   S
    Zr45   O80       0.62687      .   S
    Zr40   O81       1.02192      .   S
    Zr6    O81       1.02192      .   S
    Zr6    O82       0.97021      .   S
    Zr31   O82       0.97021      .   S
    Zr31   O83       0.65556      .   S
    Zr11   O83       0.65556      .   S
    Zr46   O84       0.62037      .   S
    Zr19   O84       0.62037      .   S
    Zr19   O85       0.65566      .   S
    Zr47   O85       0.65566      .   S
    Zr11   O86       0.62049      .   S
    Zr30   O86       0.62049      .   S
    Zr47   O87       0.97010      .   S
    Zr2    O87       0.97010      .   S
    Zr2    O88       1.02194      .   S
    Zr24   O88       1.02194      .   S
    Zr2    O89       1.00413      .   S
    Zr35   O89       1.00413      .   S
    Zr24   O90       0.63662      .   S
    Zr8    O90       0.63662      .   S
    Zr29   O91       0.62686      .   S
    Zr9    O91       0.62686      .   S
    Zr9    O92       0.65120      .   S
    Zr28   O92       0.65120      .   S
    Zr8    O93       0.63657      .   S
    Zr25   O93       0.63657      .   S
    Zr34   O94       1.00404      .   S
    Zr7    O94       1.00404      .   S
    Zr34   O95       0.63995      .   S
    Zr14   O95       0.63995      .   S
    Zr7    O96       1.00211      .   S
    Zr28   O96       1.00211  1_455   S
    Zr7    O97       1.01077      .   S
    Zr33   O97       1.01077      .   S
    Zr35   O98       0.63693      .   S
    Zr14   O98       0.63693      .   S
    Zr25   O99       1.01137      .   S
    Zr5    O99       1.01137      .   S
    Zr10   O100      0.63696      .   S
    Zr27   O100      0.63696      .   S
    Zr10   O101      0.63988      .   S
    Zr26   O101      0.63988      .   S
    Zr33   O102      0.63678      .   S
    Zr12   O102      0.63678      .   S
    Zr27   O103      1.00443      .   S
    Zr0    O103      1.00443      .   S
    Zr36   O104      1.00083      .   S
    Zr5    O104      1.00083      .   S
    Zr36   O105      0.65140      .   S
    Zr13   O105      0.65140      .   S
    Zr5    O106      1.00372      .   S
    Zr26   O106      1.00372      .   S
    Zr12   O107      0.63686      .   S
    Zr32   O107      0.63686      .   S
    Zr13   O108      0.62662      .   S
    Zr37   O108      0.62662      .   S
    Zr32   O109      1.02228  1_655   S
    Zr0    O109      1.02228      .   S
    Zr0    O110      0.97023      .   S
    Zr55   O110      0.97023      .   S
    Zr38   O111      0.62047      .   S
    Zr15   O111      0.62047      .   S
    N112   O113      2.77614  1_565   S
    Zr1    O113      3.81250      .   S
    N112   O114      2.76857  1_554   S
    Zr0    O114      3.79087      .   S
    N115   O116      1.07249      .   S
    Zr19   O116      1.60202      .   S
    N115   O117      1.02961      .   S
    Zr16   O117      1.53702      .   S
    N115   O118      1.13313      .   S
    Zr18   O118      1.66993      .   S
    N115   O119      1.15302      .   S
    Zr17   O119      1.68573      .   S
    N120   O121      2.77679  1_565   S
    Zr7    O121      3.81395      .   S
    N120   O122      2.76888      .   S
    Zr6    O122      3.79141      .   S
    N123   O124      1.07254      .   S
    Zr11   O124      1.60223      .   S
    N123   O125      1.02968      .   S
    Zr8    O125      1.53711      .   S
    N123   O126      1.15295      .   S
    Zr9    O126      1.68566      .   S
    N123   O127      1.13332      .   S
    Zr10   O127      1.67025      .   S
    N128   O129      2.77666  1_545   S
    Zr3    O129      3.81373      .   S
    N128   O130      2.76874      .   S
    Zr2    O130      3.79117      .   S
    N131   O132      1.13157      .   S
    Zr14   O132      1.66749      .   S
    N131   O133      1.14778      .   S
    Zr13   O133      1.68046      .   S
    N131   O134      1.07434      .   S
    Zr15   O134      1.60388      .   S
    N131   O135      1.03381      .   S
    Zr12   O135      1.54254      .   S
    N136   O137      1.02915      .   S
    Zr20   O137      1.53666      .   S
    N136   O138      1.15343      .   S
    Zr21   O138      1.68653      .   S
    N136   O139      1.13215      .   S
    Zr22   O139      1.66861      .   S
    N136   O140      1.07296      .   S
    Zr23   O140      1.60279      .   S
    N141   O142      2.77605  1_545   S
    Zr5    O142      3.81233      .   S
    N141   O143      2.76856  1_556   S
    Zr4    O143      3.79085      .   S
