# CIF file generated by openbabel 2.4.90, see http://openbabel.sf.net
data_I
_chemical_name_common ''
_cell_length_a 14.273
_cell_length_b 15.94
_cell_length_c 19.73
_cell_angle_alpha 110.743
_cell_angle_beta 89.833
_cell_angle_gamma 116.784
_space_group_name_H-M_alt 'P 1'
_space_group_name_Hall 'P 1'
loop_
    _symmetry_equiv_pos_as_xyz
    x,y,z
loop_
    _atom_site_label
    _atom_site_type_symbol
    _atom_site_fract_x
    _atom_site_fract_y
    _atom_site_fract_z
    _atom_site_occupancy
    C0      C    0.09066   0.45625   0.89493   1.000
    C1      C    0.55495   0.46029   0.19001   1.000
    C2      C    0.63539   0.54410   0.60554   1.000
    C3      C    0.09454   0.53976   0.30968   1.000
    C4      C    0.90936   0.54377   0.10490   1.000
    C5      C    0.44508   0.53975   0.80984   1.000
    C6      C    0.36461   0.45587   0.39426   1.000
    C7      C    0.90549   0.46028   0.69017   1.000
    C8      C    0.52391   0.77938   0.71979   1.000
    C9      C    0.39996   0.85408   0.74130   1.000
    C10     C    0.20268   0.73616   0.71837   1.000
    C11     C    0.16045   0.24918   0.70721   1.000
    C12     C    0.16753   0.15441   0.57731   1.000
    C13     C    0.22625   0.24785   0.49346   1.000
    C14     C    0.15610   0.63294   0.04138   1.000
    C15     C    0.24679   0.82333   0.08858   1.000
    C16     C    0.24916   0.79504   0.86249   1.000
    C17     C    0.14983   0.60513   0.82349   1.000
    C18     C    0.34051   0.30353   0.18026   1.000
    C19     C    0.23480   0.11162   0.13560   1.000
    C20     C    0.50216   0.09530   0.04042   1.000
    C21     C    0.60001   0.28808   0.09353   1.000
    C22     C    0.74285   0.22082   0.78050   1.000
    C23     C    0.54391   0.14644   0.75911   1.000
    C24     C    0.46542   0.26455   0.78201   1.000
    C25     C    0.91271   0.75095   0.79264   1.000
    C26     C    0.00000   0.84574   0.92222   1.000
    C27     C    0.98050   0.75238   0.00602   1.000
    C28     C    0.52199   0.36776   0.45891   1.000
    C29     C    0.42228   0.17737   0.41141   1.000
    C30     C    0.45478   0.20480   0.63715   1.000
    C31     C    0.54536   0.39476   0.67650   1.000
    C32     C    0.03736   0.69591   0.31900   1.000
    C33     C    0.12354   0.88774   0.36366   1.000
    C34     C    0.40714   0.90555   0.45943   1.000
    C35     C    0.31225   0.71281   0.40635   1.000
    C36     C    0.47612   0.22063   0.28004   1.000
    C37     C    0.60006   0.14592   0.25844   1.000
    C38     C    0.79733   0.26383   0.28143   1.000
    C39     C    0.83953   0.75083   0.29262   1.000
    C40     C    0.83247   0.84559   0.42253   1.000
    C41     C    0.77379   0.75214   0.50637   1.000
    C42     C    0.84392   0.36708   0.95845   1.000
    C43     C    0.75324   0.17669   0.91125   1.000
    C44     C    0.75087   0.20497   0.13733   1.000
    C45     C    0.85018   0.39489   0.17634   1.000
    C46     C    0.65951   0.69648   0.81958   1.000
    C47     C    0.76521   0.88839   0.86421   1.000
    C48     C    0.49787   0.90473   0.95941   1.000
    C49     C    0.40003   0.71195   0.90633   1.000
    C50     C    0.25717   0.77919   0.21932   1.000
    C51     C    0.45611   0.85358   0.24075   1.000
    C52     C    0.53460   0.73547   0.21782   1.000
    C53     C    0.08728   0.24907   0.20719   1.000
    C54     C    0.98479   0.15428   0.07760   1.000
    C55     C    0.01952   0.24763   0.99380   1.000
    C56     C    0.47800   0.63222   0.54091   1.000
    C57     C    0.57768   0.82261   0.58843   1.000
    C58     C    0.54520   0.79522   0.36270   1.000
    C59     C    0.45465   0.60526   0.32327   1.000
    C60     C    0.96265   0.30409   0.68084   1.000
    C61     C    0.87646   0.11226   0.63617   1.000
    C62     C    0.59286   0.09448   0.54043   1.000
    C63     C    0.68776   0.28722   0.59351   1.000
    C64     C    0.47540   0.58409   0.67593   1.000
    C65     C    0.39801   0.62505   0.68928   1.000
    C66     C    0.43793   0.73044   0.71159   1.000
    C67     C    0.36876   0.77179   0.72330   1.000
    C68     C    0.25933   0.70678   0.71107   1.000
    C69     C    0.21773   0.60069   0.68730   1.000
    C70     C    0.28724   0.55803   0.67619   1.000
    C71     C    0.09893   0.53521   0.67343   1.000
    C72     C    0.21338   0.44249   0.77519   1.000
    C73     C    0.21718   0.39229   0.69569   1.000
    C74     C    0.18588   0.28788   0.66947   1.000
    C75     C    0.18974   0.23525   0.59700   1.000
    C76     C    0.22230   0.28683   0.55031   1.000
    C77     C    0.25079   0.39070   0.57458   1.000
    C78     C    0.24935   0.44533   0.64847   1.000
    C79     C    0.28093   0.44014   0.51940   1.000
    C80     C    0.17691   0.67131   0.00344   1.000
    C81     C    0.22736   0.77729   0.02959   1.000
    C82     C    0.25529   0.82346   0.97883   1.000
    C83     C    0.22873   0.76155   0.90337   1.000
    C84     C    0.17498   0.65611   0.88148   1.000
    C85     C    0.37311   0.25432   0.14972   1.000
    C86     C    0.31493   0.14857   0.12450   1.000
    C87     C    0.35991   0.08957   0.08313   1.000
    C88     C    0.46399   0.13902   0.07069   1.000
    C89     C    0.51820   0.24526   0.09985   1.000
    C90     C    0.89085   0.41609   0.82410   1.000
    C91     C    0.77232   0.37524   0.81095   1.000
    C92     C    0.70621   0.26988   0.78874   1.000
    C93     C    0.59552   0.22870   0.77702   1.000
    C94     C    0.55157   0.29382   0.78930   1.000
    C95     C    0.61669   0.39988   0.81299   1.000
    C96     C    0.72904   0.44236   0.82400   1.000
    C97     C    0.56382   0.46550   0.82682   1.000
    C98     C    0.77138   0.55754   0.72496   1.000
    C99     C    0.82564   0.60792   0.80433   1.000
    C100    C    0.89929   0.71230   0.83038   1.000
    C101    C    0.95618   0.76492   0.90261   1.000
    C102    C    0.93712   0.71338   0.94935   1.000
    C103    C    0.86114   0.60958   0.92527   1.000
    C104    C    0.80454   0.55498   0.85159   1.000
    C105    C    0.84182   0.56016   0.98044   1.000
    C106    C    0.50480   0.32922   0.49672   1.000
    C107    C    0.44928   0.22322   0.47039   1.000
    C108    C    0.43167   0.17679   0.52096   1.000
    C109    C    0.46742   0.23849   0.59643   1.000
    C110    C    0.51910   0.34396   0.61853   1.000
    C111    C    0.11915   0.74541   0.34960   1.000
    C112    C    0.16671   0.85113   0.37488   1.000
    C113    C    0.27064   0.91055   0.41643   1.000
    C114    C    0.32526   0.86152   0.42901   1.000
    C115    C    0.27325   0.75528   0.39980   1.000
    C116    C    0.52463   0.41592   0.32389   1.000
    C117    C    0.60202   0.37496   0.31054   1.000
    C118    C    0.56209   0.26956   0.28824   1.000
    C119    C    0.63126   0.22821   0.27643   1.000
    C120    C    0.74068   0.29321   0.28870   1.000
    C121    C    0.78229   0.39930   0.31251   1.000
    C122    C    0.71278   0.44197   0.32360   1.000
    C123    C    0.90109   0.46478   0.32638   1.000
    C124    C    0.78665   0.55752   0.22465   1.000
    C125    C    0.78283   0.60772   0.30414   1.000
    C126    C    0.81413   0.71213   0.33036   1.000
    C127    C    0.81027   0.76475   0.40277   1.000
    C128    C    0.77773   0.71316   0.44952   1.000
    C129    C    0.74925   0.60930   0.42524   1.000
    C130    C    0.75068   0.55467   0.35136   1.000
    C131    C    0.71913   0.55984   0.48040   1.000
    C132    C    0.82311   0.32871   0.99639   1.000
    C133    C    0.77267   0.22273   0.97023   1.000
    C134    C    0.74474   0.17656   0.02100   1.000
    C135    C    0.77130   0.23847   0.09646   1.000
    C136    C    0.82504   0.34391   0.11835   1.000
    C137    C    0.62691   0.74570   0.85012   1.000
    C138    C    0.68508   0.85144   0.87532   1.000
    C139    C    0.64011   0.91045   0.91600   1.000
    C140    C    0.53604   0.86100   0.92914   1.000
    C141    C    0.48183   0.75476   0.89999   1.000
    C142    C    0.10917   0.58392   0.17568   1.000
    C143    C    0.22770   0.62477   0.18887   1.000
    C144    C    0.29382   0.73014   0.21110   1.000
    C145    C    0.40450   0.77132   0.22282   1.000
    C146    C    0.44845   0.70620   0.21053   1.000
    C147    C    0.38333   0.60013   0.18682   1.000
    C148    C    0.27099   0.55765   0.17577   1.000
    C149    C    0.43619   0.53451   0.17300   1.000
    C150    C    0.22863   0.44248   0.27486   1.000
    C151    C    0.17437   0.39210   0.19549   1.000
    C152    C    0.10071   0.28772   0.16945   1.000
    C153    C    0.04382   0.23509   0.09722   1.000
    C154    C    0.06289   0.28663   0.05047   1.000
    C155    C    0.13888   0.39043   0.07455   1.000
    C156    C    0.19547   0.44503   0.14823   1.000
    C157    C    0.15820   0.43985   0.01938   1.000
    C158    C    0.49518   0.67076   0.50310   1.000
    C159    C    0.55069   0.77677   0.52944   1.000
    C160    C    0.56831   0.82321   0.47889   1.000
    C161    C    0.53256   0.76152   0.40341   1.000
    C162    C    0.48089   0.65605   0.38130   1.000
    C163    C    0.88085   0.25459   0.65010   1.000
    C164    C    0.83329   0.14888   0.62496   1.000
    C165    C    0.72935   0.08946   0.58342   1.000
    C166    C    0.67474   0.13850   0.57085   1.000
    C167    C    0.72676   0.24474   0.59999   1.000
    C168    C    0.15173   0.61159   0.93055   1.000
    C169    C    0.31413   0.93093   0.99940   1.000
    C170    C    0.29676   0.98209   0.05900   1.000
    C171    C    0.47359   0.30195   0.13803   1.000
    C172    C    0.53994   0.38873   0.56962   1.000
    C173    C    0.38328   0.06935   0.50020   1.000
    C174    C    0.31483   0.01798   0.44030   1.000
    C175    C    0.17198   0.69820   0.36154   1.000
    C176    C    0.84828   0.38843   0.06920   1.000
    C177    C    0.68591   0.06909   0.00000   1.000
    C178    C    0.70325   0.01793   0.94052   1.000
    C179    C    0.52644   0.69808   0.86181   1.000
    C180    C    0.46006   0.61127   0.43020   1.000
    C181    C    0.61668   0.93066   0.49965   1.000
    C182    C    0.68516   0.98203   0.55951   1.000
    C183    C    0.82803   0.30182   0.63831   1.000
    C184    C    0.53688   0.60769   0.63126   1.000
    C185    C    0.47828   0.52867   0.70826   1.000
    C186    C    0.29719   0.51924   0.82041   1.000
    C187    C    0.12353   0.40302   0.79440   1.000
    C188    C    0.04263   0.58172   0.69618   1.000
    C189    C    0.05648   0.43954   0.64405   1.000
    C190    C    0.28122   0.52175   0.52984   1.000
    C191    C    0.30671   0.38905   0.46130   1.000
    C192    C    0.92835   0.39280   0.86896   1.000
    C193    C    0.94964   0.47119   0.79150   1.000
    C194    C    0.77832   0.48086   0.67963   1.000
    C195    C    0.72092   0.59674   0.70596   1.000
    C196    C    0.46086   0.41893   0.80402   1.000
    C197    C    0.61743   0.56113   0.85622   1.000
    C198    C    0.75948   0.47934   0.97078   1.000
    C199    C    0.91983   0.61042   0.03766   1.000
    C200    C    0.46311   0.39228   0.36853   1.000
    C201    C    0.52179   0.47138   0.29159   1.000
    C202    C    0.70284   0.48079   0.17941   1.000
    C203    C    0.87651   0.59698   0.20546   1.000
    C204    C    0.95739   0.41827   0.30360   1.000
    C205    C    0.94354   0.56045   0.35576   1.000
    C206    C    0.71889   0.47825   0.46990   1.000
    C207    C    0.69329   0.61090   0.53850   1.000
    C208    C    0.07166   0.60719   0.13085   1.000
    C209    C    0.05040   0.52885   0.20827   1.000
    C210    C    0.22172   0.51918   0.32019   1.000
    C211    C    0.27906   0.40326   0.29387   1.000
    C212    C    0.53916   0.58107   0.19570   1.000
    C213    C    0.38257   0.43888   0.14362   1.000
    C214    C    0.24055   0.52065   0.02902   1.000
    C215    C    0.08014   0.38961   0.96219   1.000
    O216    O    0.71533   0.12283   0.01050   1.000
    O217    O    0.69458   0.04351   0.97026   1.000
    O218    O    0.20214   0.72430   0.01652   1.000
    O219    O    0.16650   0.65213   0.02241   1.000
    O220    O    0.16432   0.64145   0.96700   1.000
    O221    O    0.95881   0.73288   0.97769   1.000
    O222    O    0.19938   0.48025   0.02420   1.000
    O223    O    0.14854   0.41514   0.04697   1.000
    O224    O    0.11917   0.41473   0.99079   1.000
    O225    O    0.75802   0.20751   0.05873   1.000
    O226    O    0.75870   0.19965   0.99562   1.000
    O227    O    0.23708   0.80031   0.05909   1.000
    O228    O    0.24133   0.80037   0.00421   1.000
    O229    O    0.91459   0.57710   0.07128   1.000
    O230    O    0.88082   0.58529   0.00905   1.000
    O231    O    0.48307   0.11716   0.05556   1.000
    O232    O    0.10088   0.33853   0.06251   1.000
    O233    O    0.05336   0.26086   0.07385   1.000
    O234    O    0.04121   0.26713   0.02214   1.000
    O235    O    0.32834   0.03583   0.07107   1.000
    O236    O    0.30544   0.95651   0.02920   1.000
    O237    O    0.87882   0.46610   0.08705   1.000
    O238    O    0.83666   0.36617   0.09378   1.000
    O239    O    0.83570   0.35857   0.03279   1.000
    O240    O    0.41195   0.11430   0.07691   1.000
    O241    O    0.49109   0.19214   0.08527   1.000
    O242    O    0.16718   0.41773   0.11139   1.000
    O243    O    0.01431   0.19469   0.08741   1.000
    O244    O    0.33742   0.11907   0.10382   1.000
    O245    O    0.55910   0.26667   0.09669   1.000
    O246    O    0.79817   0.29119   0.10741   1.000
    O247    O    0.76109   0.22172   0.11690   1.000
    O248    O    0.07226   0.26141   0.13334   1.000
    O249    O    0.49589   0.27361   0.11894   1.000
    O250    O    0.99051   0.57548   0.11788   1.000
    O251    O    0.89293   0.57037   0.15518   1.000
    O252    O    0.83761   0.36940   0.14735   1.000
    O253    O    0.27487   0.13010   0.13005   1.000
    O254    O    0.34402   0.20145   0.13711   1.000
    O255    O    0.09041   0.59555   0.15327   1.000
    O256    O    0.42335   0.27813   0.14388   1.000
    O257    O    0.51427   0.38112   0.16402   1.000
    O258    O    0.40938   0.48669   0.15831   1.000
    O259    O    0.23323   0.50134   0.16200   1.000
    O260    O    0.18492   0.41857   0.17186   1.000
    O261    O    0.35681   0.27892   0.16499   1.000
    O262    O    0.13754   0.33991   0.18247   1.000
    O263    O    0.09399   0.26840   0.18832   1.000
    O264    O    0.40976   0.56732   0.17991   1.000
    O265    O    0.48768   0.55779   0.18435   1.000
    O266    O    0.16843   0.60435   0.18228   1.000
    O267    O    0.07978   0.55639   0.19198   1.000
    O268    O    0.32716   0.57889   0.18130   1.000
    O269    O    0.24934   0.59121   0.18232   1.000
    O270    O    0.62890   0.47054   0.18471   1.000
    O271    O    0.74474   0.51915   0.20203   1.000
    O272    O    0.41589   0.65317   0.19868   1.000
    O273    O    0.26076   0.67746   0.19999   1.000
    O274    O    0.54706   0.52068   0.19286   1.000
    O275    O    0.53837   0.46583   0.24080   1.000
    O276    O    0.20150   0.41729   0.23517   1.000
    O277    O    0.83158   0.57725   0.21506   1.000
    O278    O    0.07247   0.53430   0.25898   1.000
    O279    O    0.49152   0.72083   0.21418   1.000
    O280    O    0.42647   0.73876   0.21668   1.000
    O281    O    0.27550   0.75467   0.21521   1.000
    O282    O    0.34916   0.75073   0.21696   1.000
    O283    O    0.43030   0.81245   0.23179   1.000
    O284    O    0.78474   0.58262   0.26439   1.000
    O285    O    0.61566   0.18706   0.26744   1.000
    O286    O    0.25385   0.42287   0.28436   1.000
    O287    O    0.22517   0.48083   0.29753   1.000
    O288    O    0.59667   0.24888   0.28234   1.000
    O289    O    0.68597   0.26071   0.28257   1.000
    O290    O    0.51910   0.24510   0.28414   1.000
    O291    O    0.76901   0.27852   0.28507   1.000
    O292    O    0.58205   0.32226   0.29939   1.000
    O293    O    0.76149   0.34625   0.30061   1.000
    O294    O    0.52321   0.44365   0.30774   1.000
    O295    O    0.82683   0.73148   0.31149   1.000
    O296    O    0.32184   0.42956   0.34407   1.000
    O297    O    0.02597   0.47901   0.30664   1.000
    O298    O    0.92924   0.44153   0.31499   1.000
    O299    O    0.79848   0.65992   0.31725   1.000
    O300    O    0.76675   0.58119   0.32775   1.000
    O301    O    0.15813   0.52947   0.31494   1.000
    O302    O    0.13326   0.61898   0.33561   1.000
    O303    O    0.65740   0.40846   0.31707   1.000
    O304    O    0.56333   0.39544   0.31722   1.000
    O305    O    0.74754   0.42063   0.31806   1.000
    O306    O    0.84169   0.43204   0.31945   1.000
    O307    O    0.07826   0.72066   0.33430   1.000
    O308    O    0.46777   0.63065   0.35229   1.000
    O309    O    0.73173   0.49832   0.33748   1.000
    O310    O    0.49387   0.40410   0.34621   1.000
    O311    O    0.92232   0.51262   0.34107   1.000
    O312    O    0.81220   0.73844   0.36657   1.000
    O313    O    0.14556   0.72180   0.35557   1.000
    O314    O    0.14293   0.79827   0.36224   1.000
    O315    O    0.74996   0.58198   0.38830   1.000
    O316    O    0.22261   0.72674   0.38067   1.000
    O317    O    0.53888   0.77837   0.38306   1.000
    O318    O    0.14512   0.86944   0.36927   1.000
    O319    O    0.41386   0.42408   0.38140   1.000
    O320    O    0.21868   0.88084   0.39566   1.000
    O321    O    0.50672   0.70878   0.39236   1.000
    O322    O    0.47048   0.63366   0.40575   1.000
    O323    O    0.41234   0.53357   0.41223   1.000
    O324    O    0.33566   0.42246   0.42778   1.000
    O325    O    0.29275   0.73405   0.40308   1.000
    O326    O    0.29925   0.80840   0.41441   1.000
    O327    O    0.82137   0.80517   0.41265   1.000
    O328    O    0.79400   0.73896   0.42615   1.000
    O329    O    0.55043   0.79236   0.44115   1.000
    O330    O    0.43578   0.20029   0.44090   1.000
    O331    O    0.29795   0.88603   0.42272   1.000
    O332    O    0.29273   0.96426   0.42837   1.000
    O333    O    0.76349   0.66123   0.43738   1.000
    O334    O    0.73419   0.58457   0.45282   1.000
    O335    O    0.36620   0.88354   0.44422   1.000
    O336    O    0.47762   0.64101   0.46665   1.000
    O337    O    0.34905   0.04366   0.47025   1.000
    O338    O    0.77576   0.73265   0.47795   1.000
    O339    O    0.51340   0.34849   0.47781   1.000
    O340    O    0.29382   0.41460   0.49035   1.000
    O341    O    0.71901   0.51905   0.47515   1.000
    O342    O    0.47704   0.27622   0.48356   1.000
    O343    O    0.44047   0.20001   0.49568   1.000
    O344    O    0.59250   0.87693   0.48927   1.000
    O345    O    0.55950   0.79999   0.50417   1.000
    O346    O    0.70621   0.58537   0.50945   1.000
    O347    O    0.22427   0.26734   0.52189   1.000
    O348    O    0.52237   0.35898   0.53317   1.000
    O349    O    0.65092   0.95634   0.52958   1.000
    O350    O    0.40747   0.12307   0.51058   1.000
    O351    O    0.52294   0.72377   0.51627   1.000
    O352    O    0.48659   0.65149   0.52201   1.000
    O353    O    0.28108   0.48095   0.52462   1.000
    O354    O    0.26586   0.41542   0.54699   1.000
    O355    O    0.44955   0.20764   0.55870   1.000
    O356    O    0.56419   0.79969   0.55894   1.000
    O357    O    0.66434   0.57750   0.57202   1.000
    O358    O    0.63380   0.11649   0.55564   1.000
    O359    O    0.23654   0.33876   0.56245   1.000
    O360    O    0.20602   0.26104   0.57366   1.000
    O361    O    0.70725   0.03574   0.57147   1.000
    O362    O    0.58766   0.46641   0.58758   1.000
    O363    O    0.52952   0.36634   0.59408   1.000
    O364    O    0.70204   0.11398   0.57713   1.000
    O365    O    0.70075   0.19162   0.58542   1.000
    O366    O    0.25007   0.41801   0.61153   1.000
    O367    O    0.17863   0.19483   0.58716   1.000
    O368    O    0.78132   0.11917   0.60419   1.000
    O369    O    0.70726   0.26598   0.59675   1.000
    O370    O    0.49326   0.29123   0.60748   1.000
    O371    O    0.46110   0.22165   0.61679   1.000
    O372    O    0.18781   0.26156   0.63324   1.000
    O373    O    0.77740   0.27328   0.61915   1.000
    O374    O    0.58614   0.57589   0.61840   1.000
    O375    O    0.67815   0.57042   0.65575   1.000
    O376    O    0.53223   0.36936   0.64752   1.000
    O377    O    0.85487   0.13056   0.63057   1.000
    O378    O    0.85707   0.20173   0.63753   1.000
    O379    O    0.50614   0.59589   0.65360   1.000
    O380    O    0.85444   0.27821   0.64421   1.000
    O381    O    0.86676   0.38105   0.66424   1.000
    O382    O    0.07771   0.48737   0.65874   1.000
    O383    O    0.26830   0.50168   0.66233   1.000
    O384    O    0.23327   0.41881   0.67208   1.000
    O385    O    0.92175   0.27934   0.66547   1.000
    O386    O    0.20153   0.34008   0.68258   1.000
    O387    O    0.17316   0.26853   0.68834   1.000
    O388    O    0.15833   0.56795   0.68036   1.000
    O389    O    0.07078   0.55846   0.68481   1.000
    O390    O    0.43670   0.60457   0.68261   1.000
    O391    O    0.47684   0.55638   0.69210   1.000
    O392    O    0.25249   0.57936   0.68175   1.000
    O393    O    0.34263   0.59154   0.68274   1.000
    O394    O    0.84190   0.47057   0.68490   1.000
    O395    O    0.77485   0.51920   0.70230   1.000
    O396    O    0.23853   0.65374   0.69919   1.000
    O397    O    0.41797   0.67775   0.70044   1.000
    O398    O    0.97406   0.52100   0.69318   1.000
    O399    O    0.92756   0.46573   0.74084   1.000
    O400    O    0.21528   0.41739   0.73544   1.000
    O401    O    0.74615   0.57714   0.71546   1.000
    O402    O    0.46168   0.53421   0.75905   1.000
    O403    O    0.23101   0.72147   0.71472   1.000
    O404    O    0.31405   0.73929   0.71719   1.000
    O405    O    0.48092   0.75491   0.71569   1.000
    O406    O    0.40335   0.75112   0.71745   1.000
    O407    O    0.38436   0.81294   0.73230   1.000
    O408    O    0.79851   0.58273   0.76465   1.000
    O409    O    0.56972   0.18757   0.76807   1.000
    O410    O    0.16846   0.42275   0.78480   1.000
    O411    O    0.25529   0.48086   0.79780   1.000
    O412    O    0.65086   0.24929   0.78288   1.000
    O413    O    0.57355   0.26126   0.78316   1.000
    O414    O    0.72453   0.24535   0.78462   1.000
    O415    O    0.50850   0.27918   0.78566   1.000
    O416    O    0.73926   0.32256   0.79985   1.000
    O417    O    0.58413   0.34685   0.80115   1.000
    O418    O    0.92024   0.44364   0.80780   1.000
    O419    O    0.90600   0.73163   0.81151   1.000
    O420    O    0.10710   0.42964   0.84467   1.000
    O421    O    0.45297   0.47934   0.80693   1.000
    O422    O    0.51234   0.44222   0.81542   1.000
    O423    O    0.86247   0.66011   0.81736   1.000
    O424    O    0.81509   0.58145   0.82796   1.000
    O425    O    0.37114   0.52949   0.81513   1.000
    O426    O    0.48576   0.61891   0.83583   1.000
    O427    O    0.75068   0.40880   0.81748   1.000
    O428    O    0.83159   0.39566   0.81753   1.000
    O429    O    0.67286   0.42112   0.81850   1.000
    O430    O    0.59026   0.43269   0.81991   1.000
    O431    O    0.64321   0.72109   0.83485   1.000
    O432    O    0.16240   0.63062   0.85249   1.000
    O433    O    0.76679   0.49867   0.83780   1.000
    O434    O    0.90960   0.40444   0.84653   1.000
    O435    O    0.59063   0.51332   0.84152   1.000
    O436    O    0.92774   0.73861   0.86650   1.000
    O437    O    0.57667   0.72189   0.85597   1.000
    O438    O    0.65600   0.79857   0.86272   1.000
    O439    O    0.83284   0.58228   0.88843   1.000
    O440    O    0.50413   0.72642   0.88090   1.000
    O441    O    0.23895   0.77829   0.88293   1.000
    O442    O    0.72515   0.86992   0.86977   1.000
    O443    O    0.00950   0.42452   0.88195   1.000
    O444    O    0.66259   0.88095   0.89566   1.000
    O445    O    0.20185   0.70883   0.89243   1.000
    O446    O    0.16336   0.63385   0.90602   1.000
    O447    O    0.12120   0.53392   0.91274   1.000
    O448    O    0.08540   0.42293   0.92856   1.000
    O449    O    0.44093   0.73336   0.90316   1.000
    O450    O    0.50894   0.80788   0.91457   1.000
    O451    O    0.97809   0.80533   0.91242   1.000
    O452    O    0.94665   0.73915   0.92598   1.000
    O453    O    0.24201   0.79250   0.94110   1.000
    O454    O    0.76295   0.19971   0.94074   1.000
    O455    O    0.58807   0.88573   0.92257   1.000
    O456    O    0.67168   0.96419   0.92826   1.000
    O457    O    0.89913   0.66148   0.93731   1.000
    O458    O    0.85148   0.58487   0.95286   1.000
    O459    O    0.51695   0.88286   0.94428   1.000
    O460    O    0.83351   0.34789   0.97742   1.000
    O461    O    0.79789   0.27572   0.98331   1.000
    O462    O    0.80065   0.51975   0.97561   1.000
    O463    O    0.28471   0.87719   0.98912   1.000
loop_
    _geom_bond_atom_site_label_1
    _geom_bond_atom_site_label_2
    _geom_bond_distance
    _geom_bond_site_symmetry_2
    _ccdc_geom_bond_type
    C177   O216      0.70960      .   S
    C134   O216      0.70960      .   S
    C177   O217      0.63360  1_554   S
    C178   O217      0.63360      .   S
    C80    O218      0.69405      .   S
    C81    O218      0.69405      .   S
    C80    O219      0.54361      .   S
    C14    O219      0.54361      .   S
    C80    O220      0.67612  1_554   S
    C168   O220      0.67612      .   S
    C27    O221      0.54423  1_554   S
    C102   O221      0.54423      .   S
    C157   O222      0.62047      .   S
    C214   O222      0.62047      .   S
    C157   O223      0.75683      .   S
    C155   O223      0.75683      .   S
    C157   O224      0.65553  1_554   S
    C215   O224      0.65553      .   S
    C134   O225      0.69991      .   S
    C135   O225      0.69991      .   S
    C134   O226      0.69988  1_554   S
    C133   O226      0.69988      .   S
    C81    O227      0.54394      .   S
    C15    O227      0.54394      .   S
    C81    O228      0.69977      .   S
    C82    O228      0.69977  1_556   S
    C199   O229      0.97022      .   S
    C4     O229      0.97022      .   S
    C199   O230      0.65554      .   S
    C105   O230      0.65554  1_556   S
    C20    O231      0.54426      .   S
    C88    O231      0.54426      .   S
    C154   O232      0.70153      .   S
    C155   O232      0.70153      .   S
    C154   O233      0.69525      .   S
    C153   O233      0.69525      .   S
    C154   O234      0.54421      .   S
    C55    O234      0.54421  1_556   S
    C170   O235      0.70840  1_565   S
    C87    O235      0.70840      .   S
    C170   O236      0.63453      .   S
    C169   O236      0.63453  1_556   S
    C176   O237      1.02590      .   S
    C4     O237      1.02590      .   S
    C176   O238      0.67592      .   S
    C136   O238      0.67592      .   S
    C176   O239      0.67547      .   S
    C132   O239      0.67547  1_556   S
    C88    O240      0.70137      .   S
    C87    O240      0.70137      .   S
    C88    O241      0.69445      .   S
    C89    O241      0.69445      .   S
    C155   O242      0.70715      .   S
    C156   O242      0.70715      .   S
    C54    O243      0.54535  1_655   S
    C153   O243      0.54535      .   S
    C87    O244      0.70007      .   S
    C86    O244      0.70007      .   S
    C21    O245      0.54451      .   S
    C89    O245      0.54451      .   S
    C135   O246      0.69383      .   S
    C136   O246      0.69383      .   S
    C135   O247      0.54396      .   S
    C44    O247      0.54396      .   S
    C153   O248      0.69640      .   S
    C152   O248      0.69640      .   S
    C89    O249      0.67504      .   S
    C171   O249      0.67504      .   S
    C4     O250      1.02227      .   S
    C208   O250      1.02227  1_455   S
    C4     O251      1.00456      .   S
    C203   O251      1.00456      .   S
    C136   O252      0.54295      .   S
    C45    O252      0.54295      .   S
    C86    O253      0.54449      .   S
    C19    O253      0.54449      .   S
    C86    O254      0.69374      .   S
    C85    O254      0.69374      .   S
    C208   O255      0.63654      .   S
    C142   O255      0.63654      .   S
    C171   O256      0.67589      .   S
    C85    O256      0.67589      .   S
    C171   O257      1.03710      .   S
    C1     O257      1.03710      .   S
    C213   O258      0.62662      .   S
    C149   O258      0.62662      .   S
    C156   O259      0.74969      .   S
    C148   O259      0.74969      .   S
    C156   O260      0.70688      .   S
    C151   O260      0.70688      .   S
    C85    O261      0.54485      .   S
    C18    O261      0.54485      .   S
    C152   O262      0.69976      .   S
    C151   O262      0.69976      .   S
    C152   O263      0.54507      .   S
    C53    O263      0.54507      .   S
    C149   O264      0.74933      .   S
    C147   O264      0.74933      .   S
    C149   O265      0.65130      .   S
    C212   O265      0.65130      .   S
    C142   O266      0.74891      .   S
    C143   O266      0.74891      .   S
    C142   O267      0.63652      .   S
    C209   O267      0.63652      .   S
    C148   O268      0.70644      .   S
    C147   O268      0.70644      .   S
    C148   O269      0.70572      .   S
    C143   O269      0.70572      .   S
    C202   O270      1.00374      .   S
    C1     O270      1.00374      .   S
    C202   O271      0.63991      .   S
    C124   O271      0.63991      .   S
    C147   O272      0.70127      .   S
    C146   O272      0.70127      .   S
    C143   O273      0.69926      .   S
    C144   O273      0.69926      .   S
    C1     O274      1.00099      .   S
    C212   O274      1.00099      .   S
    C1     O275      1.01130      .   S
    C201   O275      1.01130      .   S
    C151   O276      0.75046      .   S
    C150   O276      0.75046      .   S
    C203   O277      0.63695      .   S
    C124   O277      0.63695      .   S
    C209   O278      1.01153      .   S
    C3     O278      1.01153      .   S
    C146   O279      0.54470      .   S
    C52    O279      0.54470      .   S
    C146   O280      0.69593      .   S
    C145   O280      0.69593      .   S
    C144   O281      0.54531      .   S
    C50    O281      0.54531      .   S
    C144   O282      0.69644      .   S
    C145   O282      0.69644      .   S
    C145   O283      0.54534      .   S
    C51    O283      0.54534      .   S
    C124   O284      0.75045      .   S
    C125   O284      0.75045      .   S
    C37    O285      0.54532      .   S
    C119   O285      0.54532      .   S
    C150   O286      0.63697      .   S
    C211   O286      0.63697      .   S
    C150   O287      0.63994      .   S
    C210   O287      0.63994      .   S
    C119   O288      0.69639      .   S
    C118   O288      0.69639      .   S
    C119   O289      0.69597      .   S
    C120   O289      0.69597      .   S
    C36    O290      0.54531      .   S
    C118   O290      0.54531      .   S
    C38    O291      0.54470      .   S
    C120   O291      0.54470      .   S
    C118   O292      0.69927      .   S
    C117   O292      0.69927      .   S
    C120   O293      0.70121      .   S
    C121   O293      0.70121      .   S
    C201   O294      0.63654      .   S
    C116   O294      0.63654      .   S
    C39    O295      0.54511      .   S
    C126   O295      0.54511      .   S
    C211   O296      1.00399      .   S
    C6     O296      1.00399      .   S
    C204   O297      1.00208  1_655   S
    C3     O297      1.00208      .   S
    C204   O298      0.65123      .   S
    C123   O298      0.65123      .   S
    C125   O299      0.69977      .   S
    C126   O299      0.69977      .   S
    C125   O300      0.70700      .   S
    C130   O300      0.70700      .   S
    C3     O301      1.00403      .   S
    C210   O301      1.00403      .   S
    C3     O302      1.03769      .   S
    C175   O302      1.03769      .   S
    C117   O303      0.70573      .   S
    C122   O303      0.70573      .   S
    C117   O304      0.74868      .   S
    C116   O304      0.74868      .   S
    C121   O305      0.70641      .   S
    C122   O305      0.70641      .   S
    C121   O306      0.74912      .   S
    C123   O306      0.74912      .   S
    C32    O307      0.54461      .   S
    C111   O307      0.54461      .   S
    C59    O308      0.54295      .   S
    C162   O308      0.54295      .   S
    C122   O309      0.74980      .   S
    C130   O309      0.74980      .   S
    C116   O310      0.63665      .   S
    C200   O310      0.63665      .   S
    C123   O311      0.62687      .   S
    C205   O311      0.62687      .   S
    C126   O312      0.69641      .   S
    C127   O312      0.69641      .   S
    C111   O313      0.67612      .   S
    C175   O313      0.67612      .   S
    C111   O314      0.69368      .   S
    C112   O314      0.69368      .   S
    C130   O315      0.70713      .   S
    C129   O315      0.70713      .   S
    C175   O316      0.67483      .   S
    C115   O316      0.67483      .   S
    C58    O317      0.54398      .   S
    C161   O317      0.54398      .   S
    C33    O318      0.54447      .   S
    C112   O318      0.54447      .   S
    C200   O319      1.02192      .   S
    C6     O319      1.02192      .   S
    C112   O320      0.70007      .   S
    C113   O320      0.70007      .   S
    C162   O321      0.69383      .   S
    C161   O321      0.69383      .   S
    C162   O322      0.67520      .   S
    C180   O322      0.67520      .   S
    C6     O323      1.02645      .   S
    C180   O323      1.02645      .   S
    C6     O324      0.97021      .   S
    C191   O324      0.97021      .   S
    C115   O325      0.54474      .   S
    C35    O325      0.54474      .   S
    C115   O326      0.69446      .   S
    C114   O326      0.69446      .   S
    C127   O327      0.54535      .   S
    C40    O327      0.54535      .   S
    C127   O328      0.69519      .   S
    C128   O328      0.69519      .   S
    C161   O329      0.70000      .   S
    C160   O329      0.70000      .   S
    C29    O330      0.54386      .   S
    C107   O330      0.54386      .   S
    C113   O331      0.70138      .   S
    C114   O331      0.70138      .   S
    C113   O332      0.70872      .   S
    C174   O332      0.70872  1_545   S
    C129   O333      0.70151      .   S
    C128   O333      0.70151      .   S
    C129   O334      0.75671      .   S
    C131   O334      0.75671      .   S
    C114   O335      0.54429      .   S
    C34    O335      0.54429      .   S
    C180   O336      0.67619      .   S
    C158   O336      0.67619      .   S
    C174   O337      0.63680      .   S
    C173   O337      0.63680      .   S
    C128   O338      0.54423      .   S
    C41    O338      0.54423      .   S
    C28    O339      0.54351      .   S
    C106   O339      0.54351      .   S
    C191   O340      0.65556      .   S
    C79    O340      0.65556      .   S
    C206   O341      0.62037      .   S
    C131   O341      0.62037      .   S
    C107   O342      0.69406      .   S
    C106   O342      0.69406      .   S
    C107   O343      0.70003      .   S
    C108   O343      0.70003      .   S
    C160   O344      0.71010      .   S
    C181   O344      0.71010      .   S
    C160   O345      0.69994      .   S
    C159   O345      0.69994      .   S
    C131   O346      0.65566      .   S
    C207   O346      0.65566      .   S
    C13    O347      0.54426      .   S
    C76    O347      0.54426      .   S
    C106   O348      0.67621      .   S
    C172   O348      0.67621      .   S
    C181   O349      0.63660      .   S
    C182   O349      0.63660      .   S
    C173   O350      0.71007      .   S
    C108   O350      0.71007      .   S
    C158   O351      0.69406      .   S
    C159   O351      0.69406      .   S
    C158   O352      0.54356      .   S
    C56    O352      0.54356      .   S
    C79    O353      0.62049      .   S
    C190   O353      0.62049      .   S
    C79    O354      0.75683      .   S
    C77    O354      0.75683      .   S
    C108   O355      0.69993      .   S
    C109   O355      0.69993      .   S
    C159   O356      0.54393      .   S
    C57    O356      0.54393      .   S
    C207   O357      0.97010      .   S
    C2     O357      0.97010      .   S
    C62    O358      0.54431      .   S
    C166   O358      0.54431      .   S
    C76    O359      0.70152      .   S
    C77    O359      0.70152      .   S
    C76    O360      0.69465      .   S
    C75    O360      0.69465      .   S
    C182   O361      0.70871  1_565   S
    C165   O361      0.70871      .   S
    C172   O362      1.02635      .   S
    C2     O362      1.02635      .   S
    C172   O363      0.67520      .   S
    C110   O363      0.67520      .   S
    C166   O364      0.70136      .   S
    C165   O364      0.70136      .   S
    C166   O365      0.69448      .   S
    C167   O365      0.69448      .   S
    C77    O366      0.70724      .   S
    C78    O366      0.70724      .   S
    C12    O367      0.54539      .   S
    C75    O367      0.54539      .   S
    C165   O368      0.70008      .   S
    C164   O368      0.70008      .   S
    C63    O369      0.54453      .   S
    C167   O369      0.54453      .   S
    C109   O370      0.69383      .   S
    C110   O370      0.69383      .   S
    C109   O371      0.54402      .   S
    C30    O371      0.54402      .   S
    C75    O372      0.69691      .   S
    C74    O372      0.69691      .   S
    C167   O373      0.67504      .   S
    C183   O373      0.67504      .   S
    C2     O374      1.02194      .   S
    C184   O374      1.02194      .   S
    C2     O375      1.00413      .   S
    C195   O375      1.00413      .   S
    C110   O376      0.54251      .   S
    C31    O376      0.54251      .   S
    C164   O377      0.54446      .   S
    C61    O377      0.54446      .   S
    C164   O378      0.69379      .   S
    C163   O378      0.69379      .   S
    C184   O379      0.63662      .   S
    C64    O379      0.63662      .   S
    C183   O380      0.67561      .   S
    C163   O380      0.67561      .   S
    C183   O381      1.03779      .   S
    C7     O381      1.03779      .   S
    C189   O382      0.62686      .   S
    C71    O382      0.62686      .   S
    C78    O383      0.74981      .   S
    C70    O383      0.74981      .   S
    C78    O384      0.70697      .   S
    C73    O384      0.70697      .   S
    C163   O385      0.54505      .   S
    C60    O385      0.54505      .   S
    C74    O386      0.69977      .   S
    C73    O386      0.69977      .   S
    C74    O387      0.54510      .   S
    C11    O387      0.54510      .   S
    C71    O388      0.74913      .   S
    C69    O388      0.74913      .   S
    C71    O389      0.65120      .   S
    C188   O389      0.65120      .   S
    C64    O390      0.74868      .   S
    C65    O390      0.74868      .   S
    C64    O391      0.63657      .   S
    C185   O391      0.63657      .   S
    C70    O392      0.70641      .   S
    C69    O392      0.70641      .   S
    C70    O393      0.70572      .   S
    C65    O393      0.70572      .   S
    C194   O394      1.00404      .   S
    C7     O394      1.00404      .   S
    C194   O395      0.63995      .   S
    C98    O395      0.63995      .   S
    C69    O396      0.70125      .   S
    C68    O396      0.70125      .   S
    C65    O397      0.69925      .   S
    C66    O397      0.69925      .   S
    C7     O398      1.00211      .   S
    C188   O398      1.00211  1_455   S
    C7     O399      1.01077      .   S
    C193   O399      1.01077      .   S
    C73    O400      0.75051      .   S
    C72    O400      0.75051      .   S
    C195   O401      0.63693      .   S
    C98    O401      0.63693      .   S
    C185   O402      1.01137      .   S
    C5     O402      1.01137      .   S
    C68    O403      0.54469      .   S
    C10    O403      0.54469      .   S
    C68    O404      0.69601      .   S
    C67    O404      0.69601      .   S
    C66    O405      0.54531      .   S
    C8     O405      0.54531      .   S
    C66    O406      0.69641      .   S
    C67    O406      0.69641      .   S
    C67    O407      0.54532      .   S
    C9     O407      0.54532      .   S
    C98    O408      0.75045      .   S
    C99    O408      0.75045      .   S
    C23    O409      0.54534      .   S
    C93    O409      0.54534      .   S
    C72    O410      0.63696      .   S
    C187   O410      0.63696      .   S
    C72    O411      0.63988      .   S
    C186   O411      0.63988      .   S
    C93    O412      0.69644      .   S
    C92    O412      0.69644      .   S
    C93    O413      0.69594      .   S
    C94    O413      0.69594      .   S
    C22    O414      0.54527      .   S
    C92    O414      0.54527      .   S
    C24    O415      0.54470      .   S
    C94    O415      0.54470      .   S
    C92    O416      0.69926      .   S
    C91    O416      0.69926      .   S
    C94    O417      0.70128      .   S
    C95    O417      0.70128      .   S
    C193   O418      0.63678      .   S
    C90    O418      0.63678      .   S
    C25    O419      0.54510      .   S
    C100   O419      0.54510      .   S
    C187   O420      1.00443      .   S
    C0     O420      1.00443      .   S
    C196   O421      1.00083      .   S
    C5     O421      1.00083      .   S
    C196   O422      0.65140      .   S
    C97    O422      0.65140      .   S
    C99    O423      0.69976      .   S
    C100   O423      0.69976      .   S
    C99    O424      0.70691      .   S
    C104   O424      0.70691      .   S
    C5     O425      1.00372      .   S
    C186   O425      1.00372      .   S
    C5     O426      1.03703      .   S
    C179   O426      1.03703      .   S
    C91    O427      0.70577      .   S
    C96    O427      0.70577      .   S
    C91    O428      0.74890      .   S
    C90    O428      0.74890      .   S
    C95    O429      0.70645      .   S
    C96    O429      0.70645      .   S
    C95    O430      0.74931      .   S
    C97    O430      0.74931      .   S
    C46    O431      0.54485      .   S
    C137   O431      0.54485      .   S
    C17    O432      0.54295      .   S
    C84    O432      0.54295      .   S
    C96    O433      0.74966      .   S
    C104   O433      0.74966      .   S
    C90    O434      0.63686      .   S
    C192   O434      0.63686      .   S
    C97    O435      0.62662      .   S
    C197   O435      0.62662      .   S
    C100   O436      0.69641      .   S
    C101   O436      0.69641      .   S
    C137   O437      0.67585      .   S
    C179   O437      0.67585      .   S
    C137   O438      0.69374      .   S
    C138   O438      0.69374      .   S
    C104   O439      0.70716      .   S
    C103   O439      0.70716      .   S
    C179   O440      0.67505      .   S
    C141   O440      0.67505      .   S
    C16    O441      0.54404      .   S
    C83    O441      0.54404      .   S
    C47    O442      0.54450      .   S
    C138   O442      0.54450      .   S
    C192   O443      1.02228  1_655   S
    C0     O443      1.02228      .   S
    C138   O444      0.69776      .   S
    C139   O444      0.69776      .   S
    C84    O445      0.69383      .   S
    C83    O445      0.69383      .   S
    C84    O446      0.67519      .   S
    C168   O446      0.67519      .   S
    C0     O447      1.02596      .   S
    C168   O447      1.02596      .   S
    C0     O448      0.97023      .   S
    C215   O448      0.97023      .   S
    C141   O449      0.54454      .   S
    C49    O449      0.54454      .   S
    C141   O450      0.69444      .   S
    C140   O450      0.69444      .   S
    C101   O451      0.52975      .   S
    C26    O451      0.52975  1_455   S
    C101   O452      0.69520      .   S
    C102   O452      0.69520      .   S
    C83    O453      0.69992      .   S
    C82    O453      0.69992      .   S
    C43    O454      0.54386      .   S
    C133   O454      0.54386      .   S
    C139   O455      0.70392      .   S
    C140   O455      0.70392      .   S
    C139   O456      0.70805      .   S
    C178   O456      0.70805  1_545   S
    C103   O457      0.70154      .   S
    C102   O457      0.70154      .   S
    C103   O458      0.75685      .   S
    C105   O458      0.75685      .   S
    C140   O459      0.54426      .   S
    C48    O459      0.54426      .   S
    C42    O460      0.54362      .   S
    C132   O460      0.54362      .   S
    C133   O461      0.69404      .   S
    C132   O461      0.69404      .   S
    C198   O462      0.62047      .   S
    C105   O462      0.62047      .   S
    C82    O463      0.71019      .   S
    C169   O463      0.71019      .   S
