# CIF file generated by openbabel 2.4.90, see http://openbabel.sf.net
data_I
_chemical_name_common ''
_cell_length_a 27.92
_cell_length_b 14.179
_cell_length_c 14.88
_cell_angle_alpha 65.279
_cell_angle_beta 62.007
_cell_angle_gamma 60.493
_space_group_name_H-M_alt 'P 1'
_space_group_name_Hall 'P 1'
loop_
    _symmetry_equiv_pos_as_xyz
    x,y,z
loop_
    _atom_site_label
    _atom_site_type_symbol
    _atom_site_fract_x
    _atom_site_fract_y
    _atom_site_fract_z
    _atom_site_occupancy
    Ca0     Ca   0.76922   0.97617   0.36924   1.000
    Ca1     Ca   0.44199   0.52381   0.13068   1.000
    Ca2     Ca   0.94200   0.52381   0.13068   1.000
    Ca3     Ca   0.23086   0.02379   0.63069   1.000
    Ca4     Ca   0.73087   0.02379   0.63069   1.000
    Ca5     Ca   0.05809   0.47616   0.86924   1.000
    Ca6     Ca   0.55809   0.47616   0.86924   1.000
    Ca7     Ca   0.39300   0.74999   0.24989   1.000
    Ca8     Ca   0.89301   0.75000   0.24989   1.000
    Ca9     Ca   0.10708   0.24997   0.75004   1.000
    Ca10    Ca   0.60708   0.24997   0.75004   1.000
    Ca11    Ca   0.26922   0.97617   0.36924   1.000
