# CIF file generated by openbabel 2.4.90, see http://openbabel.sf.net
data_I
_chemical_name_common ''
_cell_length_a 27.92
_cell_length_b 14.179
_cell_length_c 14.88
_cell_angle_alpha 65.279
_cell_angle_beta 62.007
_cell_angle_gamma 60.493
_space_group_name_H-M_alt 'P 1'
_space_group_name_Hall 'P 1'
loop_
    _symmetry_equiv_pos_as_xyz
    x,y,z
loop_
    _atom_site_label
    _atom_site_type_symbol
    _atom_site_fract_x
    _atom_site_fract_y
    _atom_site_fract_z
    _atom_site_occupancy
    N0      N    0.09094   0.35837   0.38038   1.000
    N1      N    0.59094   0.35838   0.38038   1.000
    N2      N    0.25004   0.49999   0.49995   1.000
    N3      N    0.75004   0.49999   0.49996   1.000
    N4      N    0.40913   0.64158   0.61945   1.000
    N5      N    0.90913   0.64158   0.61956   1.000
    N6      N    0.96034   0.14159   0.11920   1.000
    N7      N    0.46034   0.14159   0.11919   1.000
    N8      N    0.53976   0.85836   0.88034   1.000
    N9      N    0.25004   0.99998   0.99996   1.000
    N10     N    0.03912   0.85836   0.88034   1.000
    N11     N    0.75004   0.99998   0.99994   1.000
    Zr12    Zr   0.60708   0.24997   0.75004   1.000
    O13     O    0.54731   0.36563   0.71251   1.000
    O14     O    0.56513   0.22661   0.86414   1.000
    O15     O    0.61055   0.27333   0.63582   1.000
    O16     O    0.58643   0.13429   0.78751   1.000
    O17     O    0.64660   0.33036   0.68379   1.000
    O18     O    0.65369   0.16961   0.81622   1.000
    Zr19    Zr   0.05809   0.47616   0.86924   1.000
    O20     O    0.03451   0.36798   0.93864   1.000
    O21     O    0.02622   0.38144   0.95244   1.000
    O22     O    0.04626   0.58874   0.88398   1.000
    O23     O    0.01304   0.52379   0.79687   1.000
    O24     O    0.11655   0.48768   0.76370   1.000
    O25     O    0.11598   0.47173   0.75829   1.000
    Zr26    Zr   0.26922   0.97617   0.36924   1.000
    O27     O    0.26903   0.97171   0.25830   1.000
    O28     O    0.31217   0.86799   0.43868   1.000
    O29     O    0.30681   0.88143   0.45239   1.000
    O30     O    0.25779   0.98771   0.26369   1.000
    O31     O    0.32665   0.02380   0.29679   1.000
    O32     O    0.21725   0.08876   0.38400   1.000
    Zr33    Zr   0.94200   0.52381   0.13068   1.000
    O34     O    0.97370   0.61852   0.04738   1.000
    O35     O    0.88410   0.52825   0.24163   1.000
    O36     O    0.88353   0.51229   0.23622   1.000
    O37     O    0.96541   0.63198   0.06119   1.000
    O38     O    0.95367   0.41122   0.11584   1.000
    O39     O    0.98704   0.47617   0.20306   1.000
    Zr40    Zr   0.10708   0.24997   0.75004   1.000
    O41     O    0.04731   0.36563   0.71254   1.000
    O42     O    0.15369   0.16961   0.81622   1.000
    O43     O    0.06513   0.22661   0.86414   1.000
    O44     O    0.14660   0.33036   0.68379   1.000
    O45     O    0.08627   0.13429   0.78751   1.000
    O46     O    0.11055   0.27333   0.63582   1.000
    Zr47    Zr   0.73087   0.02379   0.63069   1.000
    O48     O    0.73106   0.02825   0.74162   1.000
    O49     O    0.78284   0.91120   0.61593   1.000
    O50     O    0.68792   0.13197   0.56122   1.000
    O51     O    0.69328   0.11852   0.54741   1.000
    O52     O    0.74230   0.01225   0.73623   1.000
    O53     O    0.67344   0.97616   0.70304   1.000
    Zr54    Zr   0.76922   0.97617   0.36924   1.000
    O55     O    0.75779   0.98771   0.26369   1.000
    O56     O    0.76903   0.97172   0.25829   1.000
    O57     O    0.80681   0.88144   0.45253   1.000
    O58     O    0.81217   0.86799   0.43871   1.000
    O59     O    0.82665   0.02380   0.29680   1.000
    O60     O    0.71725   0.08876   0.38400   1.000
    Zr61    Zr   0.89301   0.75000   0.24989   1.000
    O62     O    0.88953   0.72663   0.36412   1.000
    O63     O    0.93480   0.77335   0.13569   1.000
    O64     O    0.91366   0.86567   0.21233   1.000
    O65     O    0.84640   0.83036   0.18370   1.000
    O66     O    0.85348   0.66961   0.31613   1.000
    O67     O    0.95277   0.63433   0.28740   1.000
    Zr68    Zr   0.39300   0.74999   0.24989   1.000
    O69     O    0.43495   0.77335   0.13570   1.000
    O70     O    0.41366   0.86567   0.21232   1.000
    O71     O    0.38953   0.72663   0.36409   1.000
    O72     O    0.34639   0.83035   0.18370   1.000
    O73     O    0.35348   0.66961   0.31613   1.000
    O74     O    0.45277   0.63433   0.28739   1.000
    Zr75    Zr   0.23086   0.02379   0.63069   1.000
    O76     O    0.28283   0.91120   0.61579   1.000
    O77     O    0.24230   0.01225   0.73624   1.000
    O78     O    0.23105   0.02824   0.74163   1.000
    O79     O    0.17328   0.97616   0.70303   1.000
    O80     O    0.18792   0.13197   0.56122   1.000
    O81     O    0.19327   0.11852   0.54741   1.000
    Zr82    Zr   0.55809   0.47616   0.86924   1.000
    O83     O    0.52623   0.38144   0.95244   1.000
    O84     O    0.54642   0.58874   0.88398   1.000
    O85     O    0.51304   0.52379   0.79684   1.000
    O86     O    0.61598   0.47173   0.75829   1.000
    O87     O    0.61655   0.48768   0.76370   1.000
    O88     O    0.53451   0.36798   0.93864   1.000
    Zr89    Zr   0.44199   0.52381   0.13068   1.000
    O90     O    0.47386   0.61852   0.04738   1.000
    O91     O    0.45367   0.41122   0.11584   1.000
    O92     O    0.46557   0.63198   0.06119   1.000
    O93     O    0.38353   0.51229   0.23621   1.000
    O94     O    0.38410   0.52825   0.24163   1.000
    O95     O    0.48704   0.47617   0.20305   1.000
loop_
    _geom_bond_atom_site_label_1
    _geom_bond_atom_site_label_2
    _geom_bond_distance
    _geom_bond_site_symmetry_2
    _ccdc_geom_bond_type
    Zr12   O13       1.78853      .   S
    N4     O13       4.21013      .   S
    Zr12   O14       1.55208      .   S
    N7     O14       3.69351  1_554   S
    Zr12   O15       1.55371      .   S
    N1     O15       3.69738      .   S
    Zr12   O16       1.78851      .   S
    N8     O16       4.21011  1_565   S
    Zr12   O17       1.66327      .   S
    N3     O17       3.94108      .   S
    Zr12   O18       1.66294      .   S
    N11    O18       3.94036  1_565   S
    Zr19   O20       1.69823      .   S
    N6     O20       3.99042  1_654   S
    Zr19   O21       1.69713      .   S
    N6     O21       3.99078  1_654   S
    Zr19   O22       1.55275      .   S
    N10    O22       3.70721      .   S
    Zr19   O23       1.73902      .   S
    N5     O23       4.11018  1_655   S
    Zr19   O24       1.67297      .   S
    N2     O24       3.95739      .   S
    Zr19   O25       1.68043      .   S
    N2     O25       3.95343      .   S
    Zr26   O27       1.68078      .   S
    N9     O27       3.95394  1_556   S
    Zr26   O28       1.69818      .   S
    N4     O28       3.99029      .   S
    Zr26   O29       1.69602      .   S
    N4     O29       3.99151      .   S
    Zr26   O30       1.67321      .   S
    N9     O30       3.95799  1_556   S
    Zr26   O31       1.73909  1_565   S
    N7     O31       4.11030      .   S
    Zr26   O32       1.55390  1_565   S
    N0     O32       3.71206      .   S
    Zr33   O34       1.69482      .   S
    N10    O34       3.98318  1_456   S
    Zr33   O35       1.68043      .   S
    N3     O35       3.95338      .   S
    Zr33   O36       1.67296      .   S
    N3     O36       3.95734      .   S
    Zr33   O37       1.69587      .   S
    N10    O37       3.98290  1_456   S
    Zr33   O38       1.55504      .   S
    N6     O38       3.71490      .   S
    Zr33   O39       1.73904      .   S
    N0     O39       4.11018  1_455   S
    Zr40   O41       1.78836      .   S
    N5     O41       4.20961  1_655   S
    Zr40   O42       1.66299      .   S
    N9     O42       3.94050  1_565   S
    Zr40   O43       1.55209      .   S
    N6     O43       3.69352  1_654   S
    Zr40   O44       1.66327      .   S
    N2     O44       3.94110      .   S
    Zr40   O45       1.79128      .   S
    N10    O45       4.21821  1_565   S
    Zr40   O46       1.55367      .   S
    N0     O46       3.69727      .   S
    Zr47   O48       1.68067      .   S
    N11    O48       3.95367  1_565   S
    Zr47   O49       1.55386  1_545   S
    N5     O49       3.71199      .   S
    Zr47   O50       1.69844      .   S
    N1     O50       3.99122      .   S
    Zr47   O51       1.69751      .   S
    N1     O51       3.99135      .   S
    Zr47   O52       1.67312      .   S
    N11    O52       3.95770  1_565   S
    Zr47   O53       1.73904  1_545   S
    N8     O53       4.11008      .   S
    Zr54   O55       1.67326      .   S
    N11    O55       3.95817  1_556   S
    Zr54   O56       1.68084      .   S
    N11    O56       3.95411  1_556   S
    Zr54   O57       1.69747      .   S
    N5     O57       3.99126      .   S
    Zr54   O58       1.69841      .   S
    N5     O58       3.99111      .   S
    Zr54   O59       1.73907  1_565   S
    N6     O59       4.11027      .   S
    Zr54   O60       1.55389  1_565   S
    N1     O60       3.71206      .   S
    Zr61   O62       1.55369      .   S
    N5     O62       3.69732      .   S
    Zr61   O63       1.55152      .   S
    N10    O63       3.68963  1_456   S
    Zr61   O64       1.78818      .   S
    N6     O64       4.20918  1_545   S
    Zr61   O65       1.66304      .   S
    N11    O65       3.94067  1_556   S
    Zr61   O66       1.66325      .   S
    N3     O66       3.94104      .   S
    Zr61   O67       1.78835      .   S
    N0     O67       4.20960  1_455   S
    Zr68   O69       1.55303      .   S
    N8     O69       3.69582  1_556   S
    Zr68   O70       1.78818      .   S
    N7     O70       4.20918  1_545   S
    Zr68   O71       1.55328      .   S
    N4     O71       3.69611      .   S
    Zr68   O72       1.66301      .   S
    N9     O72       3.94054  1_556   S
    Zr68   O73       1.66325      .   S
    N2     O73       3.94104      .   S
    Zr68   O74       1.78830      .   S
    N1     O74       4.20965      .   S
    Zr75   O76       1.55414  1_545   S
    N4     O76       3.71201      .   S
    Zr75   O77       1.67318      .   S
    N9     O77       3.95790  1_565   S
    Zr75   O78       1.68074      .   S
    N9     O78       3.95386  1_565   S
    Zr75   O79       1.74265  1_545   S
    N10    O79       4.12070      .   S
    Zr75   O80       1.69841      .   S
    N0     O80       3.99113      .   S
    Zr75   O81       1.69747      .   S
    N0     O81       3.99128      .   S
    Zr82   O83       1.69715      .   S
    N7     O83       3.99081  1_554   S
    Zr82   O84       1.55434      .   S
    N8     O84       3.71314      .   S
    Zr82   O85       1.73941      .   S
    N4     O85       4.11125      .   S
    Zr82   O86       1.68042      .   S
    N3     O86       3.95339      .   S
    Zr82   O87       1.67296      .   S
    N3     O87       3.95735      .   S
    Zr82   O88       1.69825      .   S
    N7     O88       3.99046  1_554   S
    Zr89   O90       1.69736      .   S
    N8     O90       3.99098  1_556   S
    Zr89   O91       1.55504      .   S
    N7     O91       3.71492      .   S
    Zr89   O92       1.69829      .   S
    N8     O92       3.99084  1_556   S
    Zr89   O93       1.67296      .   S
    N2     O93       3.95730      .   S
    Zr89   O94       1.68042      .   S
    N2     O94       3.95335      .   S
    Zr89   O95       1.73905      .   S
    N1     O95       4.11016      .   S
