# CIF file generated by openbabel 2.4.90, see http://openbabel.sf.net
data_I
_chemical_name_common ''
_cell_length_a 23.416
_cell_length_b 15.734
_cell_length_c 18.046
_cell_angle_alpha 88.64
_cell_angle_beta 89.846
_cell_angle_gamma 90.01
_space_group_name_H-M_alt 'P 1'
_space_group_name_Hall 'P 1'
loop_
    _symmetry_equiv_pos_as_xyz
    x,y,z
loop_
    _atom_site_label
    _atom_site_type_symbol
    _atom_site_fract_x
    _atom_site_fract_y
    _atom_site_fract_z
    _atom_site_occupancy
    Zn0     Zn   0.62993   0.50712   0.78374   1.000
    Zn1     Zn   0.12992   0.50237   0.93789   1.000
    Zn2     Zn   0.62992   0.50283   0.93836   1.000
    Zn3     Zn   0.37844   0.49259   0.21830   1.000
    Zn4     Zn   0.87844   0.49256   0.21826   1.000
    Zn5     Zn   0.37986   0.49676   0.06270   1.000
    Zn6     Zn   0.87976   0.49678   0.06261   1.000
    Zn7     Zn   0.12994   0.50710   0.78280   1.000
    C8      C    0.20497   0.62686   0.85417   1.000
    C9      C    0.70485   0.62742   0.85460   1.000
    C10     C    0.05526   0.38176   0.85624   1.000
    C11     C    0.55531   0.38158   0.85690   1.000
    C12     C    0.05319   0.62553   0.86235   1.000
    C13     C    0.55312   0.62544   0.86289   1.000
    C14     C    0.20679   0.38357   0.86268   1.000
    C15     C    0.70691   0.38408   0.86317   1.000
    C16     C    0.45406   0.37219   0.14628   1.000
    C17     C    0.95361   0.37188   0.14558   1.000
    C18     C    0.30463   0.61785   0.14459   1.000
    C19     C    0.80458   0.61775   0.14462   1.000
    C20     C    0.30208   0.37458   0.13876   1.000
    C21     C    0.80199   0.37464   0.13876   1.000
    C22     C    0.45648   0.61497   0.13929   1.000
    C23     C    0.95649   0.61485   0.13911   1.000
    O24     O    0.18008   0.60795   0.91530   1.000
    O25     O    0.67991   0.60875   0.91576   1.000
    O26     O    0.08011   0.39675   0.91729   1.000
    O27     O    0.58012   0.39674   0.91795   1.000
    O28     O    0.05775   0.58185   0.92257   1.000
    O29     O    0.55772   0.58187   0.92318   1.000
    O30     O    0.20192   0.42287   0.92346   1.000
    O31     O    0.70200   0.42348   0.92389   1.000
    O32     O    0.20053   0.58553   0.79434   1.000
    O33     O    0.70055   0.58574   0.79497   1.000
    O34     O    0.05968   0.42697   0.79674   1.000
    O35     O    0.55972   0.42670   0.79732   1.000
    O36     O    0.07977   0.61073   0.80217   1.000
    O37     O    0.57976   0.61066   0.80276   1.000
    O38     O    0.18052   0.40267   0.80267   1.000
    O39     O    0.68060   0.40299   0.80315   1.000
    O40     O    0.42900   0.39000   0.08519   1.000
    O41     O    0.92806   0.38933   0.08475   1.000
    O42     O    0.33034   0.60312   0.08390   1.000
    O43     O    0.83034   0.60314   0.08393   1.000
    O44     O    0.30747   0.41801   0.07847   1.000
    O45     O    0.80728   0.41812   0.07850   1.000
    O46     O    0.45201   0.57497   0.07881   1.000
    O47     O    0.95206   0.57470   0.07870   1.000
    O48     O    0.44978   0.41440   0.20563   1.000
    O49     O    0.94973   0.41446   0.20476   1.000
    O50     O    0.30808   0.57231   0.20398   1.000
    O51     O    0.80803   0.57212   0.20396   1.000
    O52     O    0.32777   0.38951   0.19942   1.000
    O53     O    0.82773   0.38952   0.19940   1.000
    O54     O    0.42996   0.59648   0.19943   1.000
    O55     O    0.92994   0.59649   0.19925   1.000
loop_
    _geom_bond_atom_site_label_1
    _geom_bond_atom_site_label_2
    _geom_bond_distance
    _geom_bond_site_symmetry_2
    _ccdc_geom_bond_type
    Zn6    O45       2.11512      .   S
    Zn6    O47       2.11474      .   S
    Zn6    O43       2.07752      .   S
    Zn6    O41       2.06607      .   S
    Zn5    O44       2.11420      .   S
    Zn5    O46       2.11468      .   S
    Zn5    O42       2.07853      .   S
    Zn5    O40       2.06901      .   S
    O44    C20       1.27690      .   S
    O45    C21       1.27671      .   S
    O47    C23       1.27735      .   S
    O46    C22       1.27725      .   S
    O42    C18       1.27450      .   S
    O43    C19       1.27455      .   S
    O41    C17       1.27572      .   S
    O40    C16       1.27567      .   S
    C21    O53       1.27728      .   S
    C20    O52       1.27712      .   S
    C23    O55       1.27644      .   S
    C22    O54       1.27656      .   S
    C18    O50       1.27771      .   S
    C19    O51       1.27773      .   S
    C17    O49       1.27717      .   S
    C16    O48       1.27732      .   S
    O55    Zn4       2.05337      .   S
    O53    Zn4       2.04491      .   S
    O52    Zn3       2.04502      .   S
    O54    Zn3       2.05270      .   S
    O51    Zn4       2.08327      .   S
    O50    Zn3       2.08383      .   S
    O49    Zn4       2.09006      .   S
    O48    Zn3       2.09013      .   S
    Zn7    O32       2.07653      .   S
    Zn7    O34       2.08362      .   S
    Zn7    O36       2.04616      .   S
    Zn7    O38       2.05092      .   S
    Zn0    O33       2.07816      .   S
    Zn0    O35       2.08475      .   S
    Zn0    O37       2.04370      .   S
    Zn0    O39       2.04692      .   S
    O32    C8        1.27795      .   S
    O33    C9        1.27765      .   S
    O34    C10       1.27779      .   S
    O35    C11       1.27818      .   S
    O36    C12       1.27653      .   S
    O38    C14       1.27652      .   S
    O37    C13       1.27645      .   S
    O39    C15       1.27656      .   S
    C8     O24       1.27515      .   S
    C9     O25       1.27540      .   S
    C10    O26       1.27425      .   S
    C11    O27       1.27439      .   S
    C12    O28       1.27674      .   S
    C14    O30       1.27666      .   S
    C13    O29       1.27693      .   S
    C15    O31       1.27664      .   S
    O24    Zn1       2.06635      .   S
    O25    Zn2       2.06849      .   S
    O26    Zn1       2.07155      .   S
    O27    Zn2       2.07673      .   S
    O28    Zn1       2.11719      .   S
    O29    Zn2       2.11351      .   S
    O30    Zn1       2.11872      .   S
    O31    Zn2       2.11884      .   S
    Zn7    Zn1       2.79798      .   S
    Zn0    Zn2       2.78949      .   S
    Zn3    Zn5       2.80727      .   S
    Zn4    Zn6       2.80815      .   S
