# CIF file generated by openbabel 2.4.90, see http://openbabel.sf.net
data_I
_chemical_name_common ''
_cell_length_a 23.416
_cell_length_b 15.734
_cell_length_c 18.046
_cell_angle_alpha 88.64
_cell_angle_beta 89.846
_cell_angle_gamma 90.01
_space_group_name_H-M_alt 'P 1'
_space_group_name_Hall 'P 1'
loop_
    _symmetry_equiv_pos_as_xyz
    x,y,z
loop_
    _atom_site_label
    _atom_site_type_symbol
    _atom_site_fract_x
    _atom_site_fract_y
    _atom_site_fract_z
    _atom_site_occupancy
    C0      C    0.12994   0.50710   0.78280   1.000
    C1      C    0.62993   0.50712   0.78374   1.000
    C2      C    0.12992   0.50237   0.93789   1.000
    C3      C    0.62992   0.50283   0.93836   1.000
    C4      C    0.37844   0.49259   0.21830   1.000
    C5      C    0.87844   0.49256   0.21826   1.000
    C6      C    0.37986   0.49676   0.06270   1.000
    C7      C    0.87976   0.49678   0.06261   1.000
    C8      C    0.03704   0.48830   0.19570   1.000
    C9      C    0.53703   0.48865   0.19625   1.000
    C10     C    0.22202   0.50187   0.19513   1.000
    C11     C    0.72203   0.50168   0.19560   1.000
    C12     C    0.48506   0.00151   0.85297   1.000
    C13     C    0.98508   0.00191   0.85237   1.000
    C14     C    0.27469   0.00778   0.85036   1.000
    C15     C    0.77470   0.00810   0.85053   1.000
    C16     C    0.20133   0.75868   0.94662   1.000
    C17     C    0.70132   0.75949   0.94692   1.000
    C18     C    0.05712   0.24559   0.94949   1.000
    C19     C    0.55695   0.24535   0.95031   1.000
    C20     C    0.26128   0.88980   0.94203   1.000
    C21     C    0.76146   0.89043   0.94216   1.000
    C22     C    0.49669   0.11489   0.94514   1.000
    C23     C    0.99683   0.11510   0.94446   1.000
    C24     C    0.29114   0.66552   0.75730   1.000
    C25     C    0.79073   0.66604   0.75745   1.000
    C26     C    0.47090   0.34786   0.75839   1.000
    C27     C    0.97066   0.34822   0.75791   1.000
    C28     C    0.35560   0.79130   0.75831   1.000
    C29     C    0.85532   0.79169   0.75816   1.000
    C30     C    0.40613   0.22239   0.75844   1.000
    C31     C    0.90588   0.22270   0.75813   1.000
    C32     C    0.04088   0.49215   0.05806   1.000
    C33     C    0.54085   0.49261   0.05859   1.000
    C34     C    0.21834   0.50453   0.05749   1.000
    C35     C    0.71833   0.50449   0.05799   1.000
    C36     C    0.05409   0.75335   0.76227   1.000
    C37     C    0.55407   0.75307   0.76276   1.000
    C38     C    0.20711   0.26270   0.76094   1.000
    C39     C    0.70702   0.26333   0.76155   1.000
    C40     C    0.46558   0.66489   0.95905   1.000
    C41     C    0.96581   0.66521   0.95873   1.000
    C42     C    0.29301   0.33742   0.95938   1.000
    C43     C    0.79338   0.33783   0.95972   1.000
    C44     C    0.49290   0.88287   0.75816   1.000
    C45     C    0.99291   0.88312   0.75777   1.000
    C46     C    0.26821   0.13302   0.75610   1.000
    C47     C    0.76798   0.13356   0.75645   1.000
    C48     C    0.40225   0.79057   0.95192   1.000
    C49     C    0.90252   0.79092   0.95177   1.000
    C50     C    0.35627   0.21208   0.95210   1.000
    C51     C    0.85653   0.21243   0.95217   1.000
    C52     C    0.04960   0.43232   0.52844   1.000
    C53     C    0.54960   0.43247   0.52906   1.000
    C54     C    0.20859   0.57183   0.52138   1.000
    C55     C    0.70879   0.57149   0.52206   1.000
    C56     C    0.05231   0.44157   0.66695   1.000
    C57     C    0.55229   0.44174   0.66754   1.000
    C58     C    0.20602   0.57174   0.66039   1.000
    C59     C    0.70615   0.57154   0.66102   1.000
    C60     C    0.28789   0.51037   0.80506   1.000
    C61     C    0.78785   0.51097   0.80488   1.000
    C62     C    0.47284   0.49897   0.80541   1.000
    C63     C    0.97281   0.49944   0.80520   1.000
    C64     C    0.23429   0.99784   0.14687   1.000
    C65     C    0.73435   0.99776   0.14687   1.000
    C66     C    0.02390   0.99156   0.14928   1.000
    C67     C    0.52396   0.99156   0.14986   1.000
    C68     C    0.45087   0.24048   0.05391   1.000
    C69     C    0.95064   0.24010   0.05313   1.000
    C70     C    0.30634   0.75326   0.05015   1.000
    C71     C    0.80622   0.75305   0.05015   1.000
    C72     C    0.01095   0.10938   0.05744   1.000
    C73     C    0.51095   0.10955   0.05810   1.000
    C74     C    0.24593   0.88365   0.05459   1.000
    C75     C    0.74585   0.88349   0.05464   1.000
    C76     C    0.03925   0.33328   0.24264   1.000
    C77     C    0.53970   0.33329   0.24339   1.000
    C78     C    0.22043   0.65264   0.24342   1.000
    C79     C    0.72046   0.65260   0.24361   1.000
    C80     C    0.10419   0.20799   0.24140   1.000
    C81     C    0.60447   0.20779   0.24200   1.000
    C82     C    0.15534   0.77793   0.24263   1.000
    C83     C    0.65543   0.77796   0.24288   1.000
    C84     C    0.29121   0.50634   0.94290   1.000
    C85     C    0.79116   0.50670   0.94270   1.000
    C86     C    0.46873   0.49611   0.94315   1.000
    C87     C    0.96869   0.49647   0.94296   1.000
    C88     C    0.30266   0.24612   0.23811   1.000
    C89     C    0.80275   0.24619   0.23808   1.000
    C90     C    0.45631   0.73654   0.24034   1.000
    C91     C    0.95624   0.73656   0.24001   1.000
    C92     C    0.21521   0.33538   0.04200   1.000
    C93     C    0.71506   0.33537   0.04214   1.000
    C94     C    0.04295   0.66091   0.04185   1.000
    C95     C    0.54291   0.66100   0.04208   1.000
    C96     C    0.24172   0.11604   0.24172   1.000
    C97     C    0.74188   0.11602   0.24180   1.000
    C98     C    0.01706   0.86659   0.24400   1.000
    C99     C    0.51713   0.86656   0.24441   1.000
    C100    C    0.15206   0.20944   0.04820   1.000
    C101    C    0.65196   0.20933   0.04846   1.000
    C102    C    0.10588   0.78667   0.04830   1.000
    C103    C    0.60589   0.78671   0.04860   1.000
    C104    C    0.28944   0.52799   0.47560   1.000
    C105    C    0.78937   0.52760   0.47543   1.000
    C106    C    0.46960   0.46836   0.47580   1.000
    C107    C    0.96970   0.46911   0.47565   1.000
    C108    C    0.29234   0.52313   0.33735   1.000
    C109    C    0.79230   0.52258   0.33714   1.000
    C110    C    0.46471   0.46254   0.33767   1.000
    C111    C    0.96484   0.46306   0.33754   1.000
    C112    C    0.24253   0.70378   0.85200   1.000
    C113    C    0.74235   0.70442   0.85273   1.000
    C114    C    0.01763   0.30508   0.85417   1.000
    C115    C    0.51768   0.30484   0.85483   1.000
    C116    C    0.20497   0.62686   0.85417   1.000
    C117    C    0.70485   0.62742   0.85460   1.000
    C118    C    0.05526   0.38176   0.85624   1.000
    C119    C    0.55531   0.38158   0.85690   1.000
    C120    C    0.31297   0.84930   0.85068   1.000
    C121    C    0.81294   0.84974   0.85069   1.000
    C122    C    0.44687   0.15989   0.85221   1.000
    C123    C    0.94684   0.16018   0.85173   1.000
    C124    C    0.44324   0.84589   0.85463   1.000
    C125    C    0.94332   0.84620   0.85432   1.000
    C126    C    0.31657   0.16336   0.85371   1.000
    C127    C    0.81660   0.16377   0.85388   1.000
    C128    C    0.07808   0.49201   0.16737   1.000
    C129    C    0.57807   0.49227   0.16789   1.000
    C130    C    0.18103   0.49960   0.16000   1.000
    C131    C    0.68102   0.49955   0.16750   1.000
    C132    C    0.40906   0.92537   0.85224   1.000
    C133    C    0.90911   0.92568   0.85196   1.000
    C134    C    0.35068   0.08391   0.85158   1.000
    C135    C    0.85068   0.08428   0.85154   1.000
    C136    C    0.05319   0.62553   0.86235   1.000
    C137    C    0.55312   0.62544   0.86289   1.000
    C138    C    0.20679   0.38357   0.86268   1.000
    C139    C    0.70691   0.38408   0.86317   1.000
    C140    C    0.01406   0.70093   0.86044   1.000
    C141    C    0.51393   0.70070   0.86087   1.000
    C142    C    0.24596   0.30836   0.86015   1.000
    C143    C    0.74609   0.30889   0.86062   1.000
    C144    C    0.43849   0.00294   0.85233   1.000
    C145    C    0.93850   0.00327   0.85190   1.000
    C146    C    0.32127   0.00635   0.85083   1.000
    C147    C    0.82128   0.00671   0.85086   1.000
    C148    C    0.34868   0.92713   0.85119   1.000
    C149    C    0.84871   0.92750   0.85111   1.000
    C150    C    0.41108   0.08214   0.85205   1.000
    C151    C    0.91107   0.08246   0.85171   1.000
    C152    C    0.23439   0.76725   0.90458   1.000
    C153    C    0.73434   0.76794   0.90479   1.000
    C154    C    0.02474   0.23916   0.90680   1.000
    C155    C    0.52466   0.23893   0.90751   1.000
    C156    C    0.26831   0.83981   0.90229   1.000
    C157    C    0.76835   0.84040   0.90241   1.000
    C158    C    0.49056   0.16672   0.90488   1.000
    C159    C    0.99063   0.16696   0.90425   1.000
    C160    C    0.28566   0.71410   0.79884   1.000
    C161    C    0.78538   0.71464   0.79893   1.000
    C162    C    0.47550   0.29729   0.80024   1.000
    C163    C    0.97534   0.29759   0.79970   1.000
    C164    C    0.32130   0.78491   0.79900   1.000
    C165    C    0.82110   0.78536   0.79900   1.000
    C166    C    0.43967   0.22672   0.79997   1.000
    C167    C    0.93951   0.22702   0.79953   1.000
    C168    C    0.08001   0.49360   0.09038   1.000
    C169    C    0.58000   0.49394   0.09090   1.000
    C170    C    0.17918   0.50162   0.09006   1.000
    C171    C    0.67917   0.50168   0.09050   1.000
    C172    C    0.12954   0.49519   0.20675   1.000
    C173    C    0.62954   0.49526   0.20728   1.000
    C174    C    0.02099   0.76272   0.80378   1.000
    C175    C    0.52092   0.76246   0.80420   1.000
    C176    C    0.23971   0.25047   0.80279   1.000
    C177    C    0.73969   0.25102   0.80327   1.000
    C178    C    0.47104   0.71181   0.91422   1.000
    C179    C    0.97123   0.71212   0.91388   1.000
    C180    C    0.28813   0.29356   0.91402   1.000
    C181    C    0.78836   0.29401   0.91435   1.000
    C182    C    0.12967   0.49460   0.28830   1.000
    C183    C    0.62970   0.49460   0.28885   1.000
    C184    C    0.48665   0.83458   0.80182   1.000
    C185    C    0.98669   0.83485   0.80145   1.000
    C186    C    0.27394   0.17838   0.80028   1.000
    C187    C    0.77386   0.17888   0.80062   1.000
    C188    C    0.43557   0.78291   0.91033   1.000
    C189    C    0.93576   0.78323   0.91006   1.000
    C190    C    0.32355   0.22263   0.91005   1.000
    C191    C    0.82373   0.22303   0.91022   1.000
    C192    C    0.12948   0.49789   0.43194   1.000
    C193    C    0.62957   0.49780   0.43252   1.000
    C194    C    0.12915   0.50152   0.51350   1.000
    C195    C    0.62924   0.50143   0.51413   1.000
    C196    C    0.08463   0.46463   0.55531   1.000
    C197    C    0.58468   0.46470   0.55592   1.000
    C198    C    0.17354   0.54151   0.55145   1.000
    C199    C    0.67367   0.54130   0.55200   1.000
    C200    C    0.08597   0.46894   0.63206   1.000
    C201    C    0.58600   0.46904   0.63268   1.000
    C202    C    0.17223   0.54235   0.62839   1.000
    C203    C    0.67233   0.54221   0.62903   1.000
    C204    C    0.49166   0.29526   0.14810   1.000
    C205    C    0.99130   0.29506   0.14734   1.000
    C206    C    0.26701   0.69465   0.14627   1.000
    C207    C    0.76696   0.69453   0.14636   1.000
    C208    C    0.45406   0.37219   0.14628   1.000
    C209    C    0.95361   0.37188   0.14558   1.000
    C210    C    0.30463   0.61785   0.14459   1.000
    C211    C    0.80458   0.61775   0.14462   1.000
    C212    C    0.06214   0.14997   0.14800   1.000
    C213    C    0.56227   0.14997   0.14952   1.000
    C214    C    0.19607   0.83948   0.14811   1.000
    C215    C    0.69609   0.83941   0.14826   1.000
    C216    C    0.19251   0.15355   0.14535   1.000
    C217    C    0.69256   0.15349   0.14552   1.000
    C218    C    0.06583   0.83584   0.14657   1.000
    C219    C    0.56586   0.83584   0.14688   1.000
    C220    C    0.32879   0.50714   0.83350   1.000
    C221    C    0.82876   0.50766   0.83331   1.000
    C222    C    0.43176   0.50069   0.83368   1.000
    C223    C    0.93173   0.50115   0.83350   1.000
    C224    C    0.15832   0.07402   0.14743   1.000
    C225    C    0.65839   0.07395   0.14769   1.000
    C226    C    0.09988   0.91540   0.14834   1.000
    C227    C    0.59993   0.91538   0.14867   1.000
    C228    C    0.30208   0.37458   0.13876   1.000
    C229    C    0.80199   0.37464   0.13876   1.000
    C230    C    0.45648   0.61497   0.13929   1.000
    C231    C    0.95649   0.61485   0.13911   1.000
    C232    C    0.26299   0.29913   0.14020   1.000
    C233    C    0.76295   0.29913   0.14025   1.000
    C234    C    0.49555   0.69036   0.14132   1.000
    C235    C    0.99553   0.69030   0.14105   1.000
    C236    C    0.18771   0.99644   0.14745   1.000
    C237    C    0.68777   0.99638   0.14759   1.000
    C238    C    0.07048   0.99297   0.14883   1.000
    C239    C    0.57054   0.99295   0.14931   1.000
    C240    C    0.09792   0.07221   0.14839   1.000
    C241    C    0.59799   0.07217   0.14886   1.000
    C242    C    0.16028   0.91722   0.14791   1.000
    C243    C    0.66032   0.91718   0.14811   1.000
    C244    C    0.48380   0.23189   0.09590   1.000
    C245    C    0.98356   0.23164   0.09515   1.000
    C246    C    0.27399   0.76004   0.09304   1.000
    C247    C    0.77391   0.75989   0.09300   1.000
    C248    C    0.01768   0.15932   0.09728   1.000
    C249    C    0.51778   0.15944   0.09798   1.000
    C250    C    0.23981   0.83220   0.09527   1.000
    C251    C    0.73976   0.83207   0.09535   1.000
    C252    C    0.03423   0.28486   0.20098   1.000
    C253    C    0.53458   0.28491   0.20171   1.000
    C254    C    0.22479   0.70271   0.20104   1.000
    C255    C    0.72481   0.70264   0.20120   1.000
    C256    C    0.07007   0.21429   0.20067   1.000
    C257    C    0.57032   0.21422   0.20130   1.000
    C258    C    0.18889   0.77319   0.20093   1.000
    C259    C    0.68893   0.77315   0.20112   1.000
    C260    C    0.33045   0.50539   0.91048   1.000
    C261    C    0.83041   0.50580   0.91029   1.000
    C262    C    0.42967   0.49856   0.91062   1.000
    C263    C    0.92962   0.49894   0.91045   1.000
    C264    C    0.38039   0.50466   0.79403   1.000
    C265    C    0.88036   0.50518   0.79384   1.000
    C266    C    0.26976   0.23694   0.19651   1.000
    C267    C    0.76982   0.23696   0.19654   1.000
    C268    C    0.48902   0.74865   0.19830   1.000
    C269    C    0.98897   0.74864   0.19807   1.000
    C270    C    0.22047   0.28819   0.08662   1.000
    C271    C    0.72038   0.28816   0.08674   1.000
    C272    C    0.03784   0.70502   0.08702   1.000
    C273    C    0.53783   0.70509   0.08727   1.000
    C274    C    0.38067   0.50571   0.71244   1.000
    C275    C    0.88065   0.50623   0.71225   1.000
    C276    C    0.23561   0.16465   0.19834   1.000
    C277    C    0.73571   0.16462   0.19842   1.000
    C278    C    0.02305   0.82095   0.20012   1.000
    C279    C    0.52309   0.82094   0.20045   1.000
    C280    C    0.18511   0.21691   0.08998   1.000
    C281    C    0.68506   0.21683   0.09016   1.000
    C282    C    0.07308   0.77620   0.09053   1.000
    C283    C    0.57309   0.77624   0.09081   1.000
    C284    C    0.38029   0.50268   0.56894   1.000
    C285    C    0.88028   0.50301   0.56875   1.000
    C286    C    0.37961   0.49875   0.48728   1.000
    C287    C    0.87962   0.49895   0.48710   1.000
    C288    C    0.32918   0.51390   0.44737   1.000
    C289    C    0.82915   0.51372   0.44717   1.000
    C290    C    0.42941   0.48006   0.44750   1.000
    C291    C    0.92948   0.48051   0.44734   1.000
    C292    C    0.33035   0.51063   0.37054   1.000
    C293    C    0.83035   0.51034   0.37034   1.000
    C294    C    0.42712   0.47734   0.37000   1.000
    C295    C    0.92721   0.47765   0.37054   1.000
    C296    C    0.12960   0.49877   0.05221   1.000
    C297    C    0.62958   0.49904   0.05271   1.000
    C298    C    0.17867   0.51699   0.32274   1.000
    C299    C    0.67872   0.51692   0.32328   1.000
    C300    C    0.08120   0.47063   0.32452   1.000
    C301    C    0.58125   0.47058   0.32510   1.000
    C302    C    0.17873   0.51775   0.39611   1.000
    C303    C    0.67880   0.51764   0.39666   1.000
    C304    C    0.08097   0.47344   0.39787   1.000
    C305    C    0.58105   0.47334   0.39845   1.000
    C306    C    0.12915   0.50676   0.66804   1.000
    C307    C    0.62920   0.50678   0.66870   1.000
    C308    C    0.37995   0.50080   0.94856   1.000
    C309    C    0.87990   0.50114   0.94839   1.000
    C310    C    0.42931   0.48165   0.67773   1.000
    C311    C    0.92931   0.48221   0.67756   1.000
    C312    C    0.33270   0.53203   0.67671   1.000
    C313    C    0.83267   0.53244   0.67648   1.000
    C314    C    0.42915   0.48055   0.60436   1.000
    C315    C    0.92917   0.48103   0.60419   1.000
    C316    C    0.33245   0.52988   0.60333   1.000
    C317    C    0.83243   0.53020   0.60311   1.000
    C318    C    0.37848   0.49262   0.33280   1.000
    C319    C    0.87853   0.49258   0.33263   1.000
    C320    C    0.18008   0.60795   0.91530   1.000
    C321    C    0.67991   0.60875   0.91576   1.000
    C322    C    0.08011   0.39675   0.91729   1.000
    C323    C    0.58012   0.39674   0.91795   1.000
    C324    C    0.05775   0.58185   0.92257   1.000
    C325    C    0.55772   0.58187   0.92318   1.000
    C326    C    0.20192   0.42287   0.92346   1.000
    C327    C    0.70200   0.42348   0.92389   1.000
    C328    C    0.20053   0.58553   0.79434   1.000
    C329    C    0.70055   0.58574   0.79497   1.000
    C330    C    0.05968   0.42697   0.79674   1.000
    C331    C    0.55972   0.42670   0.79732   1.000
    C332    C    0.07977   0.61073   0.80217   1.000
    C333    C    0.57976   0.61066   0.80276   1.000
    C334    C    0.18052   0.40267   0.80267   1.000
    C335    C    0.68060   0.40299   0.80315   1.000
    C336    C    0.42900   0.39000   0.08519   1.000
    C337    C    0.92806   0.38933   0.08475   1.000
    C338    C    0.33034   0.60312   0.08390   1.000
    C339    C    0.83034   0.60314   0.08393   1.000
    C340    C    0.30747   0.41801   0.07847   1.000
    C341    C    0.80728   0.41812   0.07850   1.000
    C342    C    0.45201   0.57497   0.07881   1.000
    C343    C    0.95206   0.57470   0.07870   1.000
    C344    C    0.44978   0.41440   0.20563   1.000
    C345    C    0.94973   0.41446   0.20476   1.000
    C346    C    0.30808   0.57231   0.20398   1.000
    C347    C    0.80803   0.57212   0.20396   1.000
    C348    C    0.32777   0.38951   0.19942   1.000
    C349    C    0.82773   0.38952   0.19940   1.000
    C350    C    0.42996   0.59648   0.19943   1.000
    C351    C    0.92994   0.59649   0.19925   1.000
    O352    O    0.04040   0.68296   0.06443   1.000
    O353    O    0.21784   0.31179   0.06431   1.000
    O354    O    0.54037   0.68305   0.06467   1.000
    O355    O    0.71772   0.31176   0.06444   1.000
    O356    O    0.16859   0.21317   0.06909   1.000
    O357    O    0.08948   0.78143   0.06942   1.000
    O358    O    0.66851   0.21308   0.06931   1.000
    O359    O    0.58949   0.78147   0.06971   1.000
    O360    O    0.79006   0.75647   0.07157   1.000
    O361    O    0.29017   0.75665   0.07159   1.000
    O362    O    0.15439   0.50020   0.07113   1.000
    O363    O    0.10481   0.49619   0.07129   1.000
    O364    O    0.12976   0.50057   0.99505   1.000
    O365    O    0.65437   0.50036   0.07161   1.000
    O366    O    0.60479   0.49649   0.07180   1.000
    O367    O    0.62975   0.50094   0.99553   1.000
    O368    O    0.96710   0.23587   0.07414   1.000
    O369    O    0.46733   0.23619   0.07490   1.000
    O370    O    0.24287   0.85792   0.07493   1.000
    O371    O    0.74281   0.85778   0.07500   1.000
    O372    O    0.01432   0.13435   0.07736   1.000
    O373    O    0.19876   0.50307   0.07377   1.000
    O374    O    0.69875   0.50309   0.07424   1.000
    O375    O    0.06044   0.49288   0.07422   1.000
    O376    O    0.51437   0.13450   0.07804   1.000
    O377    O    0.56042   0.49328   0.07474   1.000
    O378    O    0.84352   0.45745   0.07056   1.000
    O379    O    0.91591   0.53574   0.07066   1.000
    O380    O    0.85505   0.54996   0.07327   1.000
    O381    O    0.90391   0.44306   0.07368   1.000
    O382    O    0.87983   0.49896   0.00550   1.000
    O383    O    0.34366   0.45738   0.07059   1.000
    O384    O    0.41593   0.53586   0.07075   1.000
    O385    O    0.35510   0.54994   0.07330   1.000
    O386    O    0.40443   0.44338   0.07395   1.000
    O387    O    0.37990   0.49878   0.00563   1.000
    O388    O    0.30478   0.39629   0.10861   1.000
    O389    O    0.80464   0.39638   0.10863   1.000
    O390    O    0.95427   0.59478   0.10891   1.000
    O391    O    0.45425   0.59497   0.10905   1.000
    O392    O    0.31748   0.61048   0.11424   1.000
    O393    O    0.81746   0.61044   0.11427   1.000
    O394    O    0.94084   0.38060   0.11517   1.000
    O395    O    0.44153   0.38109   0.11574   1.000
    O396    O    0.20279   0.25255   0.08830   1.000
    O397    O    0.24173   0.29366   0.11341   1.000
    O398    O    0.70272   0.25250   0.08845   1.000
    O399    O    0.74166   0.29365   0.11349   1.000
    O400    O    0.05546   0.74061   0.08877   1.000
    O401    O    0.01669   0.69766   0.11403   1.000
    O402    O    0.55546   0.74067   0.08904   1.000
    O403    O    0.51669   0.69773   0.11429   1.000
    O404    O    0.18881   0.18523   0.11766   1.000
    O405    O    0.18010   0.50061   0.12503   1.000
    O406    O    0.68881   0.18516   0.11784   1.000
    O407    O    0.07905   0.49280   0.12887   1.000
    O408    O    0.68009   0.50062   0.12900   1.000
    O409    O    0.06945   0.80602   0.11855   1.000
    O410    O    0.56948   0.80604   0.11885   1.000
    O411    O    0.57903   0.49311   0.12939   1.000
    O412    O    0.75683   0.79598   0.09417   1.000
    O413    O    0.77043   0.72721   0.11968   1.000
    O414    O    0.25690   0.79612   0.09415   1.000
    O415    O    0.27050   0.72734   0.11965   1.000
    O416    O    0.00062   0.19548   0.09621   1.000
    O417    O    0.98743   0.26335   0.12125   1.000
    O418    O    0.21794   0.83584   0.12169   1.000
    O419    O    0.71792   0.83574   0.12181   1.000
    O420    O    0.50079   0.19567   0.09694   1.000
    O421    O    0.48773   0.26357   0.12200   1.000
    O422    O    0.03991   0.15464   0.12264   1.000
    O423    O    0.54003   0.15471   0.12375   1.000
    O424    O    0.78247   0.33688   0.13950   1.000
    O425    O    0.81486   0.38208   0.16908   1.000
    O426    O    0.28253   0.33685   0.13948   1.000
    O427    O    0.31493   0.38204   0.16909   1.000
    O428    O    0.97601   0.65258   0.14008   1.000
    O429    O    0.94322   0.60567   0.16918   1.000
    O430    O    0.47602   0.65266   0.14030   1.000
    O431    O    0.44322   0.60572   0.16936   1.000
    O432    O    0.26638   0.26804   0.16836   1.000
    O433    O    0.76638   0.26804   0.16839   1.000
    O434    O    0.99225   0.71947   0.16956   1.000
    O435    O    0.49229   0.71950   0.16981   1.000
    O436    O    0.28582   0.65625   0.14543   1.000
    O437    O    0.30635   0.59508   0.17428   1.000
    O438    O    0.78577   0.65614   0.14549   1.000
    O439    O    0.80631   0.59494   0.17429   1.000
    O440    O    0.17541   0.11378   0.14639   1.000
    O441    O    0.21406   0.15910   0.17184   1.000
    O442    O    0.67547   0.11372   0.14660   1.000
    O443    O    0.71414   0.15905   0.17197   1.000
    O444    O    0.97245   0.33347   0.14646   1.000
    O445    O    0.95167   0.39317   0.17517   1.000
    O446    O    0.24590   0.69868   0.17366   1.000
    O447    O    0.47286   0.33372   0.14719   1.000
    O448    O    0.45192   0.39329   0.17596   1.000
    O449    O    0.74588   0.69858   0.17378   1.000
    O450    O    0.08286   0.87562   0.14745   1.000
    O451    O    0.04444   0.82840   0.17334   1.000
    O452    O    0.21100   0.99714   0.14716   1.000
    O453    O    0.71106   0.99707   0.14723   1.000
    O454    O    0.58289   0.87561   0.14778   1.000
    O455    O    0.54448   0.82839   0.17366   1.000
    O456    O    0.01276   0.28996   0.17416   1.000
    O457    O    0.17301   0.03523   0.14744   1.000
    O458    O    0.12812   0.07312   0.14791   1.000
    O459    O    0.17399   0.95683   0.14768   1.000
    O460    O    0.67308   0.03516   0.14764   1.000
    O461    O    0.67405   0.95678   0.14785   1.000
    O462    O    0.62819   0.07306   0.14827   1.000
    O463    O    0.17818   0.87835   0.14801   1.000
    O464    O    0.13008   0.91631   0.14813   1.000
    O465    O    0.08003   0.11109   0.14820   1.000
    O466    O    0.06611   0.18213   0.17433   1.000
    O467    O    0.51312   0.29008   0.17491   1.000
    O468    O    0.67820   0.87829   0.14819   1.000
    O469    O    0.63012   0.91628   0.14839   1.000
    O470    O    0.19248   0.80633   0.17452   1.000
    O471    O    0.69251   0.80628   0.17469   1.000
    O472    O    0.08518   0.95419   0.14858   1.000
    O473    O    0.08420   0.03259   0.14861   1.000
    O474    O    0.58523   0.95417   0.14899   1.000
    O475    O    0.04719   0.99227   0.14905   1.000
    O476    O    0.58427   0.03256   0.14908   1.000
    O477    O    0.58013   0.11107   0.14919   1.000
    O478    O    0.54725   0.99226   0.14958   1.000
    O479    O    0.56630   0.18209   0.17541   1.000
    O480    O    0.20152   0.50073   0.17757   1.000
    O481    O    0.15528   0.49739   0.18337   1.000
    O482    O    0.05756   0.49015   0.18154   1.000
    O483    O    0.10381   0.49360   0.18706   1.000
    O484    O    0.70153   0.50062   0.18155   1.000
    O485    O    0.65528   0.49741   0.18739   1.000
    O486    O    0.55755   0.49046   0.18207   1.000
    O487    O    0.60381   0.49376   0.18758   1.000
    O488    O    0.25269   0.20079   0.19742   1.000
    O489    O    0.28621   0.24153   0.21731   1.000
    O490    O    0.75277   0.20079   0.19748   1.000
    O491    O    0.78629   0.24157   0.21731   1.000
    O492    O    0.00601   0.78480   0.19909   1.000
    O493    O    0.97261   0.74260   0.21904   1.000
    O494    O    0.50606   0.78479   0.19937   1.000
    O495    O    0.47266   0.74259   0.21932   1.000
    O496    O    0.23866   0.14034   0.22003   1.000
    O497    O    0.73880   0.14032   0.22011   1.000
    O498    O    0.90419   0.54452   0.20875   1.000
    O499    O    0.85309   0.44104   0.20883   1.000
    O500    O    0.35311   0.44105   0.20886   1.000
    O501    O    0.40420   0.54454   0.20887   1.000
    O502    O    0.02005   0.84377   0.22206   1.000
    O503    O    0.52011   0.84375   0.22243   1.000
    O504    O    0.05215   0.24958   0.20082   1.000
    O505    O    0.08713   0.21114   0.22103   1.000
    O506    O    0.20684   0.73795   0.20098   1.000
    O507    O    0.17211   0.77556   0.22178   1.000
    O508    O    0.03674   0.30907   0.22181   1.000
    O509    O    0.22261   0.67767   0.22223   1.000
    O510    O    0.70687   0.73790   0.20116   1.000
    O511    O    0.67218   0.77556   0.22200   1.000
    O512    O    0.72263   0.67762   0.22240   1.000
    O513    O    0.55245   0.24957   0.20150   1.000
    O514    O    0.58740   0.21101   0.22165   1.000
    O515    O    0.53714   0.30910   0.22255   1.000
    O516    O    0.84324   0.53234   0.21111   1.000
    O517    O    0.34326   0.53245   0.21114   1.000
    O518    O    0.91409   0.45351   0.21151   1.000
    O519    O    0.41411   0.45350   0.21197   1.000
    O520    O    0.12960   0.49489   0.24753   1.000
    O521    O    0.62962   0.49493   0.24807   1.000
    O522    O    0.87849   0.49257   0.27544   1.000
    O523    O    0.37846   0.49261   0.27555   1.000
    O524    O    0.15417   0.50579   0.30552   1.000
    O525    O    0.10544   0.48261   0.30641   1.000
    O526    O    0.65421   0.50576   0.30607   1.000
    O527    O    0.60548   0.48259   0.30697   1.000
    O528    O    0.17870   0.51737   0.35943   1.000
    O529    O    0.67876   0.51728   0.35997   1.000
    O530    O    0.08108   0.47204   0.36119   1.000
    O531    O    0.58115   0.47196   0.36178   1.000
    O532    O    0.85444   0.50146   0.35148   1.000
    O533    O    0.90287   0.48511   0.35158   1.000
    O534    O    0.40280   0.48498   0.35140   1.000
    O535    O    0.35442   0.50162   0.35167   1.000
    O536    O    0.81132   0.51646   0.35374   1.000
    O537    O    0.31134   0.51688   0.35394   1.000
    O538    O    0.94603   0.47035   0.35404   1.000
    O539    O    0.44591   0.46994   0.35384   1.000
    O540    O    0.42827   0.47870   0.40875   1.000
    O541    O    0.82975   0.51203   0.40875   1.000
    O542    O    0.32977   0.51227   0.40895   1.000
    O543    O    0.92835   0.47908   0.40894   1.000
    O544    O    0.15410   0.50782   0.41403   1.000
    O545    O    0.65418   0.50772   0.41459   1.000
    O546    O    0.10523   0.48567   0.41491   1.000
    O547    O    0.60531   0.48557   0.41548   1.000
    O548    O    0.12932   0.49970   0.47272   1.000
    O549    O    0.62941   0.49962   0.47332   1.000
    O550    O    0.80926   0.52066   0.46130   1.000
    O551    O    0.85439   0.50633   0.46714   1.000
    O552    O    0.94959   0.47481   0.46150   1.000
    O553    O    0.90455   0.48973   0.46722   1.000
    O554    O    0.30931   0.52095   0.46148   1.000
    O555    O    0.35440   0.50633   0.46732   1.000
    O556    O    0.44951   0.47421   0.46165   1.000
    O557    O    0.40451   0.48941   0.46739   1.000
    O558    O    0.87995   0.50098   0.52792   1.000
    O559    O    0.37995   0.50072   0.52811   1.000
    O560    O    0.15134   0.52151   0.53248   1.000
    O561    O    0.10689   0.48308   0.53440   1.000
    O562    O    0.65146   0.52136   0.53307   1.000
    O563    O    0.60696   0.48306   0.53502   1.000
    O564    O    0.19106   0.55667   0.53641   1.000
    O565    O    0.69123   0.55639   0.53703   1.000
    O566    O    0.06712   0.44847   0.54187   1.000
    O567    O    0.56714   0.44859   0.54249   1.000
    O568    O    0.17288   0.54193   0.58992   1.000
    O569    O    0.67300   0.54175   0.59052   1.000
    O570    O    0.08530   0.46679   0.59368   1.000
    O571    O    0.58534   0.46687   0.59430   1.000
    O572    O    0.85636   0.51660   0.58593   1.000
    O573    O    0.90473   0.49202   0.58647   1.000
    O574    O    0.35637   0.51628   0.58613   1.000
    O575    O    0.40472   0.49162   0.58665   1.000
    O576    O    0.83255   0.53132   0.63980   1.000
    O577    O    0.33257   0.53095   0.64002   1.000
    O578    O    0.92924   0.48162   0.64088   1.000
    O579    O    0.42923   0.48110   0.64104   1.000
    O580    O    0.18912   0.55705   0.64439   1.000
    O581    O    0.15069   0.52456   0.64821   1.000
    O582    O    0.68924   0.55687   0.64503   1.000
    O583    O    0.65076   0.52449   0.64887   1.000
    O584    O    0.06914   0.45526   0.64950   1.000
    O585    O    0.10756   0.48785   0.65005   1.000
    O586    O    0.56914   0.45539   0.65011   1.000
    O587    O    0.60760   0.48791   0.65069   1.000
    O588    O    0.12955   0.50693   0.72542   1.000
    O589    O    0.62956   0.50695   0.72622   1.000
    O590    O    0.85666   0.51933   0.69437   1.000
    O591    O    0.35669   0.51887   0.69458   1.000
    O592    O    0.90498   0.49422   0.69490   1.000
    O593    O    0.40499   0.49368   0.69509   1.000
    O594    O    0.88051   0.50570   0.75304   1.000
    O595    O    0.38053   0.50519   0.75323   1.000
    O596    O    0.27108   0.15570   0.77819   1.000
    O597    O    0.77092   0.15622   0.77853   1.000
    O598    O    0.28840   0.68981   0.77807   1.000
    O599    O    0.78805   0.69034   0.77819   1.000
    O600    O    0.98980   0.85898   0.77961   1.000
    O601    O    0.97300   0.32290   0.77880   1.000
    O602    O    0.92269   0.22486   0.77883   1.000
    O603    O    0.48977   0.85872   0.77999   1.000
    O604    O    0.83821   0.78853   0.77858   1.000
    O605    O    0.33845   0.78810   0.77865   1.000
    O606    O    0.47320   0.32258   0.77931   1.000
    O607    O    0.42290   0.22455   0.77920   1.000
    O608    O    0.22341   0.25658   0.78186   1.000
    O609    O    0.72336   0.25717   0.78241   1.000
    O610    O    0.03754   0.75803   0.78303   1.000
    O611    O    0.53750   0.75777   0.78348   1.000
    O612    O    0.16524   0.54632   0.78857   1.000
    O613    O    0.09481   0.46703   0.78977   1.000
    O614    O    0.10485   0.55892   0.79249   1.000
    O615    O    0.15523   0.45488   0.79273   1.000
    O616    O    0.66524   0.54643   0.78935   1.000
    O617    O    0.59483   0.46691   0.79053   1.000
    O618    O    0.60485   0.55889   0.79325   1.000
    O619    O    0.65526   0.45505   0.79344   1.000
    O620    O    0.85456   0.50642   0.81357   1.000
    O621    O    0.90604   0.50316   0.81367   1.000
    O622    O    0.35459   0.50590   0.81376   1.000
    O623    O    0.40608   0.50268   0.81385   1.000
    O624    O    0.20275   0.60619   0.82425   1.000
    O625    O    0.70270   0.60658   0.82478   1.000
    O626    O    0.05747   0.40437   0.82649   1.000
    O627    O    0.55751   0.40414   0.82711   1.000
    O628    O    0.30348   0.74950   0.79892   1.000
    O629    O    0.26409   0.70894   0.82542   1.000
    O630    O    0.80324   0.75000   0.79897   1.000
    O631    O    0.76387   0.70953   0.82583   1.000
    O632    O    0.31713   0.81710   0.82484   1.000
    O633    O    0.81702   0.81755   0.82485   1.000
    O634    O    0.95742   0.26231   0.79961   1.000
    O635    O    0.94318   0.19360   0.82563   1.000
    O636    O    0.99648   0.30134   0.82693   1.000
    O637    O    0.45758   0.26200   0.80010   1.000
    O638    O    0.44327   0.19330   0.82609   1.000
    O639    O    0.49659   0.30106   0.82753   1.000
    O640    O    0.25682   0.21442   0.80153   1.000
    O641    O    0.29526   0.17087   0.82699   1.000
    O642    O    0.75678   0.21495   0.80195   1.000
    O643    O    0.79523   0.17133   0.82725   1.000
    O644    O    0.00384   0.79878   0.80261   1.000
    O645    O    0.96500   0.84052   0.82788   1.000
    O646    O    0.50378   0.79852   0.80301   1.000
    O647    O    0.46494   0.84023   0.82822   1.000
    O648    O    0.06648   0.61813   0.83226   1.000
    O649    O    0.19365   0.39312   0.83267   1.000
    O650    O    0.56644   0.61805   0.83282   1.000
    O651    O    0.24283   0.27942   0.83147   1.000
    O652    O    0.69375   0.39354   0.83316   1.000
    O653    O    0.74289   0.27995   0.83194   1.000
    O654    O    0.01752   0.73182   0.83211   1.000
    O655    O    0.51743   0.73158   0.83254   1.000
    O656    O    0.80830   0.50931   0.81910   1.000
    O657    O    0.30834   0.50876   0.81928   1.000
    O658    O    0.95227   0.50029   0.81935   1.000
    O659    O    0.45230   0.49983   0.81954   1.000
    O660    O    0.82958   0.50673   0.87180   1.000
    O661    O    0.32962   0.50627   0.87199   1.000
    O662    O    0.93068   0.50005   0.87197   1.000
    O663    O    0.43072   0.49963   0.87215   1.000
    O664    O    0.29798   0.00707   0.85059   1.000
    O665    O    0.79799   0.00741   0.85069   1.000
    O666    O    0.33082   0.88822   0.85093   1.000
    O667    O    0.29064   0.84455   0.87648   1.000
    O668    O    0.83083   0.88862   0.85090   1.000
    O669    O    0.79064   0.84507   0.87655   1.000
    O670    O    0.33497   0.96674   0.85101   1.000
    O671    O    0.33598   0.04513   0.85120   1.000
    O672    O    0.83500   0.96711   0.85098   1.000
    O673    O    0.83598   0.04550   0.85120   1.000
    O674    O    0.87891   0.92659   0.85153   1.000
    O675    O    0.37887   0.92625   0.85171   1.000
    O676    O    0.88087   0.08337   0.85162   1.000
    O677    O    0.83364   0.12403   0.85271   1.000
    O678    O    0.38088   0.08302   0.85181   1.000
    O679    O    0.33363   0.12364   0.85264   1.000
    O680    O    0.92896   0.12132   0.85172   1.000
    O681    O    0.92478   0.04286   0.85180   1.000
    O682    O    0.96874   0.16357   0.87799   1.000
    O683    O    0.92380   0.96448   0.85193   1.000
    O684    O    0.96179   0.00259   0.85213   1.000
    O685    O    0.92621   0.88594   0.85314   1.000
    O686    O    0.22375   0.66532   0.85308   1.000
    O687    O    0.23846   0.73551   0.87829   1.000
    O688    O    0.42897   0.12101   0.85213   1.000
    O689    O    0.42478   0.04254   0.85219   1.000
    O690    O    0.46871   0.16330   0.87854   1.000
    O691    O    0.42377   0.96415   0.85229   1.000
    O692    O    0.42615   0.88563   0.85343   1.000
    O693    O    0.46177   0.00222   0.85265   1.000
    O694    O    0.72360   0.66592   0.85366   1.000
    O695    O    0.73835   0.73618   0.87876   1.000
    O696    O    0.32006   0.19300   0.88188   1.000
    O697    O    0.82016   0.19340   0.88205   1.000
    O698    O    0.19252   0.61740   0.88474   1.000
    O699    O    0.03644   0.34342   0.85520   1.000
    O700    O    0.02118   0.27212   0.88049   1.000
    O701    O    0.93954   0.81472   0.88219   1.000
    O702    O    0.69238   0.61809   0.88518   1.000
    O703    O    0.43941   0.81440   0.88248   1.000
    O704    O    0.53649   0.34321   0.85586   1.000
    O705    O    0.52117   0.27188   0.88117   1.000
    O706    O    0.06768   0.38926   0.88677   1.000
    O707    O    0.56771   0.38916   0.88743   1.000
    O708    O    0.22637   0.34597   0.86141   1.000
    O709    O    0.26704   0.30096   0.88708   1.000
    O710    O    0.03362   0.66323   0.86139   1.000
    O711    O    0.99264   0.70652   0.88716   1.000
    O712    O    0.72650   0.34649   0.86189   1.000
    O713    O    0.76723   0.30145   0.88748   1.000
    O714    O    0.53352   0.66307   0.86188   1.000
    O715    O    0.49248   0.70626   0.88754   1.000
    O716    O    0.05547   0.60369   0.89246   1.000
    O717    O    0.20435   0.40322   0.89307   1.000
    O718    O    0.55542   0.60366   0.89304   1.000
    O719    O    0.70445   0.40378   0.89353   1.000
    O720    O    0.25135   0.80353   0.90344   1.000
    O721    O    0.26479   0.86480   0.92216   1.000
    O722    O    0.75134   0.80417   0.90360   1.000
    O723    O    0.76490   0.86542   0.92229   1.000
    O724    O    0.00769   0.20306   0.90553   1.000
    O725    O    0.99373   0.14103   0.92435   1.000
    O726    O    0.21786   0.76296   0.92560   1.000
    O727    O    0.71783   0.76372   0.92585   1.000
    O728    O    0.50761   0.20282   0.90619   1.000
    O729    O    0.49363   0.14080   0.92501   1.000
    O730    O    0.04093   0.24237   0.92815   1.000
    O731    O    0.54081   0.24214   0.92891   1.000
    O732    O    0.30584   0.25810   0.91204   1.000
    O733    O    0.33991   0.21736   0.93107   1.000
    O734    O    0.95349   0.74767   0.91197   1.000
    O735    O    0.91914   0.78707   0.93091   1.000
    O736    O    0.80605   0.25852   0.91229   1.000
    O737    O    0.84013   0.21773   0.93119   1.000
    O738    O    0.81079   0.50625   0.92649   1.000
    O739    O    0.85515   0.50347   0.92934   1.000
    O740    O    0.45330   0.74736   0.91228   1.000
    O741    O    0.41891   0.78674   0.93112   1.000
    O742    O    0.94915   0.49771   0.92670   1.000
    O743    O    0.90476   0.50004   0.92942   1.000
    O744    O    0.31083   0.50586   0.92669   1.000
    O745    O    0.35520   0.50310   0.92952   1.000
    O746    O    0.44920   0.49734   0.92688   1.000
    O747    O    0.40481   0.49968   0.92959   1.000
    O748    O    0.96852   0.68866   0.93630   1.000
    O749    O    0.29057   0.31549   0.93670   1.000
    O750    O    0.46831   0.68835   0.93664   1.000
    O751    O    0.79087   0.31592   0.93703   1.000
    O752    O    0.15500   0.55516   0.92659   1.000
    O753    O    0.65492   0.55579   0.92706   1.000
    O754    O    0.10501   0.44956   0.92759   1.000
    O755    O    0.60502   0.44978   0.92816   1.000
    O756    O    0.09384   0.54211   0.93023   1.000
    O757    O    0.59382   0.54235   0.93077   1.000
    O758    O    0.16592   0.46262   0.93067   1.000
    O759    O    0.66596   0.46316   0.93112   1.000
    O760    O    0.12993   0.50473   0.86034   1.000
    O761    O    0.62992   0.50497   0.86105   1.000
    O762    O    0.37915   0.49467   0.14050   1.000
    O763    O    0.87910   0.49467   0.14044   1.000
loop_
    _geom_bond_atom_site_label_1
    _geom_bond_atom_site_label_2
    _geom_bond_distance
    _geom_bond_site_symmetry_2
    _ccdc_geom_bond_type
    C94    O352      0.54471      .   S
    C272   O352      0.54471      .   S
    C92    O353      0.54477      .   S
    C270   O353      0.54477      .   S
    C95    O354      0.54469      .   S
    C273   O354      0.54469      .   S
    C93    O355      0.54480      .   S
    C271   O355      0.54480      .   S
    C100   O356      0.54503      .   S
    C280   O356      0.54503      .   S
    C102   O357      0.54519      .   S
    C282   O357      0.54519      .   S
    C101   O358      0.54503      .   S
    C281   O358      0.54503      .   S
    C103   O359      0.54501      .   S
    C283   O359      0.54501      .   S
    C71    O360      0.54376      .   S
    C247   O360      0.54376      .   S
    C70    O361      0.54433      .   S
    C246   O361      0.54433      .   S
    C296   O362      0.67491      .   S
    C170   O362      0.67491      .   S
    C296   O363      0.67497      .   S
    C168   O363      0.67497      .   S
    C296   O364      1.03122  1_554   S
    C2     O364      1.03122      .   S
    C297   O365      0.67462      .   S
    C171   O365      0.67462      .   S
    C297   O366      0.67502      .   S
    C169   O366      0.67502      .   S
    C297   O367      1.03150  1_554   S
    C3     O367      1.03150      .   S
    C69    O368      0.54434      .   S
    C245   O368      0.54434      .   S
    C68    O369      0.54433      .   S
    C244   O369      0.54433      .   S
    C74    O370      0.54451      .   S
    C250   O370      0.54451      .   S
    C75    O371      0.54448      .   S
    C251   O371      0.54448      .   S
    C72    O372      0.54460      .   S
    C248   O372      0.54460      .   S
    C34    O373      0.54409      .   S
    C170   O373      0.54409      .   S
    C35    O374      0.54380      .   S
    C171   O374      0.54380      .   S
    C32    O375      0.54407      .   S
    C168   O375      0.54407      .   S
    C73    O376      0.54482      .   S
    C249   O376      0.54482      .   S
    C33    O377      0.54409      .   S
    C169   O377      0.54409      .   S
    C7     O378      1.05756      .   S
    C341   O378      1.05756      .   S
    C7     O379      1.05737      .   S
    C343   O379      1.05737      .   S
    C7     O380      1.03876      .   S
    C339   O380      1.03876      .   S
    C7     O381      1.03303      .   S
    C337   O381      1.03303      .   S
    C7     O382      1.03036      .   S
    C309   O382      1.03036  1_556   S
    C6     O383      1.05710      .   S
    C340   O383      1.05710      .   S
    C6     O384      1.05734      .   S
    C342   O384      1.05734      .   S
    C6     O385      1.03926      .   S
    C338   O385      1.03926      .   S
    C6     O386      1.03450      .   S
    C336   O386      1.03450      .   S
    C6     O387      1.02962      .   S
    C308   O387      1.02962  1_556   S
    C340   O388      0.63845      .   S
    C228   O388      0.63845      .   S
    C341   O389      0.63835      .   S
    C229   O389      0.63835      .   S
    C343   O390      0.63867      .   S
    C231   O390      0.63867      .   S
    C342   O391      0.63862      .   S
    C230   O391      0.63862      .   S
    C338   O392      0.63725      .   S
    C210   O392      0.63725      .   S
    C339   O393      0.63728      .   S
    C211   O393      0.63728      .   S
    C337   O394      0.63786      .   S
    C209   O394      0.63786      .   S
    C336   O395      0.63784      .   S
    C208   O395      0.63784      .   S
    C270   O396      0.69701      .   S
    C280   O396      0.69701      .   S
    C270   O397      0.70159      .   S
    C232   O397      0.70159      .   S
    C271   O398      0.69700      .   S
    C281   O398      0.69700      .   S
    C271   O399      0.70159      .   S
    C233   O399      0.70159      .   S
    C272   O400      0.69686      .   S
    C282   O400      0.69686      .   S
    C272   O401      0.70175      .   S
    C235   O401      0.70175  1_655   S
    C273   O402      0.69682      .   S
    C283   O402      0.69682      .   S
    C273   O403      0.70163      .   S
    C234   O403      0.70163      .   S
    C280   O404      0.70285      .   S
    C216   O404      0.70285      .   S
    C170   O405      0.63132      .   S
    C130   O405      0.63132      .   S
    C281   O406      0.70286      .   S
    C217   O406      0.70286      .   S
    C168   O407      0.69481      .   S
    C128   O407      0.69481      .   S
    C171   O408      0.69497      .   S
    C131   O408      0.69497      .   S
    C282   O409      0.70289      .   S
    C218   O409      0.70289      .   S
    C283   O410      0.70287      .   S
    C219   O410      0.70287      .   S
    C169   O411      0.69480      .   S
    C129   O411      0.69480      .   S
    C247   O412      0.69521      .   S
    C251   O412      0.69521      .   S
    C247   O413      0.70059      .   S
    C207   O413      0.70059      .   S
    C246   O414      0.69520      .   S
    C250   O414      0.69520      .   S
    C246   O415      0.70005      .   S
    C206   O415      0.70005      .   S
    C245   O416      0.69522  1_655   S
    C248   O416      0.69522      .   S
    C245   O417      0.70017      .   S
    C205   O417      0.70017      .   S
    C250   O418      0.70203      .   S
    C214   O418      0.70203      .   S
    C251   O419      0.70197      .   S
    C215   O419      0.70197      .   S
    C244   O420      0.69507      .   S
    C249   O420      0.69507      .   S
    C244   O421      0.70017      .   S
    C204   O421      0.70017      .   S
    C248   O422      0.69674      .   S
    C212   O422      0.69674      .   S
    C249   O423      0.70200      .   S
    C213   O423      0.70200      .   S
    C229   O424      0.74927      .   S
    C233   O424      0.74927      .   S
    C229   O425      0.63864      .   S
    C349   O425      0.63864      .   S
    C228   O426      0.74932      .   S
    C232   O426      0.74932      .   S
    C228   O427      0.63856      .   S
    C348   O427      0.63856      .   S
    C231   O428      0.74966      .   S
    C235   O428      0.74966      .   S
    C231   O429      0.63822      .   S
    C351   O429      0.63822      .   S
    C230   O430      0.74957      .   S
    C234   O430      0.74957      .   S
    C230   O431      0.63828      .   S
    C350   O431      0.63828      .   S
    C232   O432      0.70158      .   S
    C266   O432      0.70158      .   S
    C233   O433      0.70152      .   S
    C267   O433      0.70152      .   S
    C235   O434      0.70160      .   S
    C269   O434      0.70160      .   S
    C234   O435      0.70102      .   S
    C268   O435      0.70102      .   S
    C210   O436      0.74816      .   S
    C206   O436      0.74816      .   S
    C210   O437      0.63885      .   S
    C346   O437      0.63885      .   S
    C211   O438      0.74810      .   S
    C207   O438      0.74810      .   S
    C211   O439      0.63887      .   S
    C347   O439      0.63887      .   S
    C216   O440      0.74252      .   S
    C224   O440      0.74252      .   S
    C216   O441      0.70295      .   S
    C276   O441      0.70295      .   S
    C217   O442      0.74246      .   S
    C225   O442      0.74246      .   S
    C217   O443      0.70286      .   S
    C277   O443      0.70286      .   S
    C209   O444      0.74826      .   S
    C205   O444      0.74826      .   S
    C209   O445      0.63859      .   S
    C345   O445      0.63859      .   S
    C206   O446      0.70192      .   S
    C254   O446      0.70192      .   S
    C208   O447      0.74827      .   S
    C204   O447      0.74827      .   S
    C208   O448      0.63866      .   S
    C344   O448      0.63866      .   S
    C207   O449      0.70192      .   S
    C255   O449      0.70192      .   S
    C218   O450      0.74259      .   S
    C226   O450      0.74259      .   S
    C218   O451      0.70291      .   S
    C278   O451      0.70291      .   S
    C64    O452      0.54549      .   S
    C236   O452      0.54549      .   S
    C65    O453      0.54551      .   S
    C237   O453      0.54551      .   S
    C219   O454      0.74251      .   S
    C227   O454      0.74251      .   S
    C219   O455      0.70291      .   S
    C279   O455      0.70291      .   S
    C205   O456      0.70199  1_655   S
    C252   O456      0.70199      .   S
    C224   O457      0.70068      .   S
    C236   O457      0.70068  1_565   S
    C224   O458      0.70732      .   S
    C240   O458      0.70732      .   S
    C236   O459      0.70094      .   S
    C242   O459      0.70094      .   S
    C237   O460      0.70064  1_565   S
    C225   O460      0.70064      .   S
    C237   O461      0.70092      .   S
    C243   O461      0.70092      .   S
    C225   O462      0.70726      .   S
    C241   O462      0.70726      .   S
    C242   O463      0.74144      .   S
    C214   O463      0.74144      .   S
    C242   O464      0.70725      .   S
    C226   O464      0.70725      .   S
    C212   O465      0.74138      .   S
    C240   O465      0.74138      .   S
    C212   O466      0.70864      .   S
    C256   O466      0.70864      .   S
    C204   O467      0.70183      .   S
    C253   O467      0.70183      .   S
    C243   O468      0.74140      .   S
    C215   O468      0.74140      .   S
    C243   O469      0.70723      .   S
    C227   O469      0.70723      .   S
    C214   O470      0.70299      .   S
    C258   O470      0.70299      .   S
    C215   O471      0.70298      .   S
    C259   O471      0.70298      .   S
    C226   O472      0.70079      .   S
    C238   O472      0.70079      .   S
    C240   O473      0.70114      .   S
    C238   O473      0.70114  1_565   S
    C227   O474      0.70076      .   S
    C239   O474      0.70076      .   S
    C238   O475      0.54548      .   S
    C66    O475      0.54548      .   S
    C241   O476      0.70109      .   S
    C239   O476      0.70109  1_565   S
    C241   O477      0.74147      .   S
    C213   O477      0.74147      .   S
    C239   O478      0.54549      .   S
    C67    O478      0.54549      .   S
    C213   O479      0.70295      .   S
    C257   O479      0.70295      .   S
    C130   O480      0.57642      .   S
    C10    O480      0.57642      .   S
    C130   O481      0.73517      .   S
    C172   O481      0.73517      .   S
    C128   O482      0.54411      .   S
    C8     O482      0.54411      .   S
    C128   O483      0.70104      .   S
    C172   O483      0.70104      .   S
    C131   O484      0.54402      .   S
    C11    O484      0.54402      .   S
    C131   O485      0.70110      .   S
    C173   O485      0.70110      .   S
    C129   O486      0.54418      .   S
    C9     O486      0.54418      .   S
    C129   O487      0.70108      .   S
    C173   O487      0.70108      .   S
    C266   O488      0.69505      .   S
    C276   O488      0.69505      .   S
    C266   O489      0.54452      .   S
    C88    O489      0.54452      .   S
    C267   O490      0.69501      .   S
    C277   O490      0.69501      .   S
    C267   O491      0.54452      .   S
    C89    O491      0.54452      .   S
    C269   O492      0.69542  1_655   S
    C278   O492      0.69542      .   S
    C269   O493      0.54456      .   S
    C91    O493      0.54456      .   S
    C268   O494      0.69533      .   S
    C279   O494      0.69533      .   S
    C268   O495      0.54510      .   S
    C90    O495      0.54510      .   S
    C276   O496      0.54552      .   S
    C96    O496      0.54552      .   S
    C277   O497      0.54557      .   S
    C97    O497      0.54557      .   S
    C351   O498      1.02669      .   S
    C5     O498      1.02669      .   S
    C349   O499      1.02245      .   S
    C5     O499      1.02245      .   S
    C348   O500      1.02251      .   S
    C4     O500      1.02251      .   S
    C350   O501      1.02635      .   S
    C4     O501      1.02635      .   S
    C278   O502      0.54515      .   S
    C98    O502      0.54515      .   S
    C279   O503      0.54557      .   S
    C99    O503      0.54557      .   S
    C256   O504      0.69606      .   S
    C252   O504      0.69606      .   S
    C256   O505      0.54498      .   S
    C80    O505      0.54498      .   S
    C258   O506      0.69587      .   S
    C254   O506      0.69587      .   S
    C258   O507      0.54508      .   S
    C82    O507      0.54508      .   S
    C252   O508      0.54475      .   S
    C76    O508      0.54475      .   S
    C254   O509      0.54473      .   S
    C78    O509      0.54473      .   S
    C259   O510      0.69588      .   S
    C255   O510      0.69588      .   S
    C259   O511      0.54511      .   S
    C83    O511      0.54511      .   S
    C255   O512      0.54472      .   S
    C79    O512      0.54472      .   S
    C257   O513      0.69610      .   S
    C253   O513      0.69610      .   S
    C257   O514      0.54515      .   S
    C81    O514      0.54515      .   S
    C253   O515      0.54479      .   S
    C77    O515      0.54479      .   S
    C347   O516      1.04163      .   S
    C5     O516      1.04163      .   S
    C346   O517      1.04192      .   S
    C4     O517      1.04192      .   S
    C345   O518      1.04503      .   S
    C5     O518      1.04503      .   S
    C344   O519      1.04507      .   S
    C4     O519      1.04507      .   S
    C172   O520      0.73574      .   S
    C182   O520      0.73574      .   S
    C173   O521      0.73591      .   S
    C183   O521      0.73591      .   S
    C5     O522      1.03197      .   S
    C319   O522      1.03197      .   S
    C4     O523      1.03314      .   S
    C318   O523      1.03314      .   S
    C182   O524      0.67841      .   S
    C298   O524      0.67841      .   S
    C182   O525      0.67854      .   S
    C300   O525      0.67854      .   S
    C183   O526      0.67841      .   S
    C299   O526      0.67841      .   S
    C183   O527      0.67855      .   S
    C301   O527      0.67855      .   S
    C298   O528      0.66219      .   S
    C302   O528      0.66219      .   S
    C299   O529      0.66227      .   S
    C303   O529      0.66227      .   S
    C300   O530      0.66273      .   S
    C304   O530      0.66273      .   S
    C301   O531      0.66271      .   S
    C305   O531      0.66271      .   S
    C319   O532      0.67438      .   S
    C293   O532      0.67438      .   S
    C319   O533      0.67439      .   S
    C295   O533      0.67439      .   S
    C318   O534      0.67127      .   S
    C294   O534      0.67127      .   S
    C318   O535      0.67440      .   S
    C292   O535      0.67440      .   S
    C109   O536      0.54479      .   S
    C293   O536      0.54479      .   S
    C108   O537      0.54480      .   S
    C292   O537      0.54480      .   S
    C111   O538      0.54492      .   S
    C295   O538      0.54492      .   S
    C110   O539      0.54150      .   S
    C294   O539      0.54150      .   S
    C294   O540      0.70071      .   S
    C290   O540      0.70071      .   S
    C293   O541      0.69448      .   S
    C289   O541      0.69448      .   S
    C292   O542      0.69443      .   S
    C288   O542      0.69443      .   S
    C295   O543      0.69444      .   S
    C291   O543      0.69444      .   S
    C302   O544      0.67670      .   S
    C192   O544      0.67670      .   S
    C303   O545      0.67671      .   S
    C193   O545      0.67671      .   S
    C304   O546      0.67663      .   S
    C192   O546      0.67663      .   S
    C305   O547      0.67667      .   S
    C193   O547      0.67667      .   S
    C192   O548      0.73715      .   S
    C194   O548      0.73715      .   S
    C193   O549      0.73760      .   S
    C195   O549      0.73760      .   S
    C289   O550      0.54280      .   S
    C105   O550      0.54280      .   S
    C289   O551      0.70117      .   S
    C287   O551      0.70117      .   S
    C291   O552      0.54277      .   S
    C107   O552      0.54277      .   S
    C291   O553      0.70136      .   S
    C287   O553      0.70136      .   S
    C288   O554      0.54250      .   S
    C104   O554      0.54250      .   S
    C288   O555      0.70117      .   S
    C286   O555      0.70117      .   S
    C290   O556      0.54280      .   S
    C106   O556      0.54280      .   S
    C290   O557      0.70132      .   S
    C286   O557      0.70132      .   S
    C287   O558      0.73824      .   S
    C285   O558      0.73824      .   S
    C286   O559      0.73826      .   S
    C284   O559      0.73826      .   S
    C194   O560      0.70166      .   S
    C198   O560      0.70166      .   S
    C194   O561      0.70130      .   S
    C196   O561      0.70130      .   S
    C195   O562      0.70118      .   S
    C199   O562      0.70118      .   S
    C195   O563      0.70118      .   S
    C197   O563      0.70118      .   S
    C54    O564      0.54337      .   S
    C198   O564      0.54337      .   S
    C55    O565      0.54298      .   S
    C199   O565      0.54298      .   S
    C52    O566      0.54323      .   S
    C196   O566      0.54323      .   S
    C53    O567      0.54322      .   S
    C197   O567      0.54322      .   S
    C198   O568      0.69455      .   S
    C202   O568      0.69455      .   S
    C199   O569      0.69538      .   S
    C203   O569      0.69538      .   S
    C196   O570      0.69436      .   S
    C200   O570      0.69436      .   S
    C197   O571      0.69447      .   S
    C201   O571      0.69447      .   S
    C285   O572      0.67680      .   S
    C317   O572      0.67680      .   S
    C285   O573      0.67681      .   S
    C315   O573      0.67681      .   S
    C284   O574      0.67678      .   S
    C316   O574      0.67678      .   S
    C284   O575      0.67685      .   S
    C314   O575      0.67685      .   S
    C317   O576      0.66268      .   S
    C313   O576      0.66268      .   S
    C316   O577      0.66274      .   S
    C312   O577      0.66274      .   S
    C315   O578      0.66231      .   S
    C311   O578      0.66231      .   S
    C314   O579      0.66229      .   S
    C310   O579      0.66229      .   S
    C202   O580      0.54507      .   S
    C58    O580      0.54507      .   S
    C202   O581      0.67449      .   S
    C306   O581      0.67449      .   S
    C203   O582      0.54508      .   S
    C59    O582      0.54508      .   S
    C203   O583      0.67454      .   S
    C307   O583      0.67454      .   S
    C200   O584      0.54486      .   S
    C56    O584      0.54486      .   S
    C200   O585      0.67453      .   S
    C306   O585      0.67453      .   S
    C201   O586      0.54487      .   S
    C57    O586      0.54487      .   S
    C201   O587      0.67456      .   S
    C307   O587      0.67456      .   S
    C306   O588      1.03561      .   S
    C0     O588      1.03561      .   S
    C307   O589      1.03813      .   S
    C1     O589      1.03813      .   S
    C313   O590      0.67831      .   S
    C275   O590      0.67831      .   S
    C312   O591      0.67828      .   S
    C274   O591      0.67828      .   S
    C311   O592      0.67832      .   S
    C275   O592      0.67832      .   S
    C310   O593      0.67829      .   S
    C274   O593      0.67829      .   S
    C275   O594      0.73604      .   S
    C265   O594      0.73604      .   S
    C274   O595      0.73604      .   S
    C264   O595      0.73604      .   S
    C46    O596      0.54556      .   S
    C186   O596      0.54556      .   S
    C47    O597      0.54551      .   S
    C187   O597      0.54551      .   S
    C24    O598      0.54529      .   S
    C160   O598      0.54529      .   S
    C25    O599      0.54481      .   S
    C161   O599      0.54481      .   S
    C45    O600      0.54551      .   S
    C185   O600      0.54551      .   S
    C27    O601      0.54477      .   S
    C163   O601      0.54477      .   S
    C31    O602      0.54507      .   S
    C167   O602      0.54507      .   S
    C44    O603      0.54555      .   S
    C184   O603      0.54555      .   S
    C29    O604      0.54505      .   S
    C165   O604      0.54505      .   S
    C28    O605      0.54489      .   S
    C164   O605      0.54489      .   S
    C26    O606      0.54479      .   S
    C162   O606      0.54479      .   S
    C30    O607      0.54509      .   S
    C166   O607      0.54509      .   S
    C38    O608      0.54459      .   S
    C176   O608      0.54459      .   S
    C39    O609      0.54452      .   S
    C177   O609      0.54452      .   S
    C36    O610      0.54451      .   S
    C174   O610      0.54451      .   S
    C37    O611      0.54449      .   S
    C175   O611      0.54449      .   S
    C0     O612      1.03826      .   S
    C328   O612      1.03826      .   S
    C0     O613      1.04181      .   S
    C330   O613      1.04181      .   S
    C0     O614      1.02308      .   S
    C332   O614      1.02308      .   S
    C0     O615      1.02546      .   S
    C334   O615      1.02546      .   S
    C1     O616      1.03908      .   S
    C329   O616      1.03908      .   S
    C1     O617      1.04237      .   S
    C331   O617      1.04237      .   S
    C1     O618      1.02185      .   S
    C333   O618      1.02185      .   S
    C1     O619      1.02346      .   S
    C335   O619      1.02346      .   S
    C265   O620      0.70101      .   S
    C221   O620      0.70101      .   S
    C265   O621      0.70099      .   S
    C223   O621      0.70099      .   S
    C264   O622      0.70099      .   S
    C220   O622      0.70099      .   S
    C264   O623      0.70100      .   S
    C222   O623      0.70100      .   S
    C328   O624      0.63897      .   S
    C116   O624      0.63897      .   S
    C329   O625      0.63882      .   S
    C117   O625      0.63882      .   S
    C330   O626      0.63889      .   S
    C118   O626      0.63889      .   S
    C331   O627      0.63909      .   S
    C119   O627      0.63909      .   S
    C160   O628      0.69600      .   S
    C164   O628      0.69600      .   S
    C160   O629      0.69885      .   S
    C112   O629      0.69885      .   S
    C161   O630      0.69599      .   S
    C165   O630      0.69599      .   S
    C161   O631      0.70193      .   S
    C113   O631      0.70193      .   S
    C164   O632      0.70325      .   S
    C120   O632      0.70325      .   S
    C165   O633      0.70300      .   S
    C121   O633      0.70300      .   S
    C167   O634      0.69581      .   S
    C163   O634      0.69581      .   S
    C167   O635      0.70298      .   S
    C123   O635      0.70298      .   S
    C163   O636      0.70204      .   S
    C114   O636      0.70204  1_455   S
    C166   O637      0.69585      .   S
    C162   O637      0.69585      .   S
    C166   O638      0.70298      .   S
    C122   O638      0.70298      .   S
    C162   O639      0.70192      .   S
    C115   O639      0.70192      .   S
    C186   O640      0.69526      .   S
    C176   O640      0.69526      .   S
    C186   O641      0.70293      .   S
    C126   O641      0.70293      .   S
    C187   O642      0.69520      .   S
    C177   O642      0.69520      .   S
    C187   O643      0.70289      .   S
    C127   O643      0.70289      .   S
    C185   O644      0.69517  1_655   S
    C174   O644      0.69517      .   S
    C185   O645      0.70291      .   S
    C125   O645      0.70291      .   S
    C184   O646      0.69495      .   S
    C175   O646      0.69495      .   S
    C184   O647      0.70283      .   S
    C124   O647      0.70283      .   S
    C332   O648      0.63827      .   S
    C136   O648      0.63827      .   S
    C334   O649      0.63826      .   S
    C138   O649      0.63826      .   S
    C333   O650      0.63823      .   S
    C137   O650      0.63823      .   S
    C176   O651      0.70147      .   S
    C142   O651      0.70147      .   S
    C335   O652      0.63828      .   S
    C139   O652      0.63828      .   S
    C177   O653      0.70147      .   S
    C143   O653      0.70147      .   S
    C174   O654      0.70159      .   S
    C140   O654      0.70159      .   S
    C175   O655      0.70153      .   S
    C141   O655      0.70153      .   S
    C61    O656      0.54424      .   S
    C221   O656      0.54424      .   S
    C60    O657      0.54422      .   S
    C220   O657      0.54422      .   S
    C63    O658      0.54424      .   S
    C223   O658      0.54424      .   S
    C62    O659      0.54410      .   S
    C222   O659      0.54410      .   S
    C221   O660      0.69472      .   S
    C261   O660      0.69472      .   S
    C220   O661      0.69472      .   S
    C260   O661      0.69472      .   S
    C223   O662      0.69450      .   S
    C263   O662      0.69450      .   S
    C222   O663      0.69440      .   S
    C262   O663      0.69440      .   S
    C14    O664      0.54549      .   S
    C146   O664      0.54549      .   S
    C15    O665      0.54548      .   S
    C147   O665      0.54548      .   S
    C120   O666      0.74149      .   S
    C148   O666      0.74149      .   S
    C120   O667      0.70204      .   S
    C156   O667      0.70204      .   S
    C121   O668      0.74135      .   S
    C149   O668      0.74135      .   S
    C121   O669      0.70205      .   S
    C157   O669      0.70205      .   S
    C146   O670      0.70096  1_545   S
    C148   O670      0.70096      .   S
    C146   O671      0.70079      .   S
    C134   O671      0.70079      .   S
    C147   O672      0.70103  1_545   S
    C149   O672      0.70103      .   S
    C147   O673      0.70070      .   S
    C135   O673      0.70070      .   S
    C149   O674      0.70731      .   S
    C133   O674      0.70731      .   S
    C148   O675      0.70723      .   S
    C132   O675      0.70723      .   S
    C135   O676      0.70719      .   S
    C151   O676      0.70719      .   S
    C135   O677      0.74255      .   S
    C127   O677      0.74255      .   S
    C134   O678      0.70726      .   S
    C150   O678      0.70726      .   S
    C134   O679      0.74241      .   S
    C126   O679      0.74241      .   S
    C151   O680      0.74115      .   S
    C123   O680      0.74115      .   S
    C151   O681      0.70089      .   S
    C145   O681      0.70089      .   S
    C123   O682      0.70193      .   S
    C159   O682      0.70193      .   S
    C145   O683      0.70065  1_545   S
    C133   O683      0.70065      .   S
    C145   O684      0.54548      .   S
    C13    O684      0.54548      .   S
    C133   O685      0.74259      .   S
    C125   O685      0.74259      .   S
    C112   O686      0.74791      .   S
    C116   O686      0.74791      .   S
    C112   O687      0.70318      .   S
    C152   O687      0.70318      .   S
    C150   O688      0.74140      .   S
    C122   O688      0.74140      .   S
    C150   O689      0.70087      .   S
    C144   O689      0.70087      .   S
    C122   O690      0.70206      .   S
    C158   O690      0.70206      .   S
    C132   O691      0.70067      .   S
    C144   O691      0.70067  1_545   S
    C132   O692      0.74234      .   S
    C124   O692      0.74234      .   S
    C144   O693      0.54548      .   S
    C12    O693      0.54548      .   S
    C113   O694      0.74787      .   S
    C117   O694      0.74787      .   S
    C113   O695      0.70009      .   S
    C153   O695      0.70009      .   S
    C126   O696      0.70285      .   S
    C190   O696      0.70285      .   S
    C127   O697      0.70297      .   S
    C191   O697      0.70297      .   S
    C116   O698      0.63758      .   S
    C320   O698      0.63758      .   S
    C114   O699      0.74757      .   S
    C118   O699      0.74757      .   S
    C114   O700      0.69994      .   S
    C154   O700      0.69994      .   S
    C125   O701      0.70291      .   S
    C189   O701      0.70291      .   S
    C117   O702      0.63770      .   S
    C321   O702      0.63770      .   S
    C124   O703      0.70290      .   S
    C188   O703      0.70290      .   S
    C115   O704      0.74794      .   S
    C119   O704      0.74794      .   S
    C115   O705      0.70001      .   S
    C155   O705      0.70001      .   S
    C118   O706      0.63713      .   S
    C322   O706      0.63713      .   S
    C119   O707      0.63719      .   S
    C323   O707      0.63719      .   S
    C142   O708      0.74938      .   S
    C138   O708      0.74938      .   S
    C142   O709      0.70164      .   S
    C180   O709      0.70164      .   S
    C140   O710      0.74940      .   S
    C136   O710      0.74940      .   S
    C140   O711      0.70177  1_455   S
    C179   O711      0.70177      .   S
    C143   O712      0.74936      .   S
    C139   O712      0.74936      .   S
    C143   O713      0.70168      .   S
    C181   O713      0.70168      .   S
    C141   O714      0.74900      .   S
    C137   O714      0.74900      .   S
    C141   O715      0.70163      .   S
    C178   O715      0.70163      .   S
    C136   O716      0.63837      .   S
    C324   O716      0.63837      .   S
    C138   O717      0.63833      .   S
    C326   O717      0.63833      .   S
    C137   O718      0.63846      .   S
    C325   O718      0.63846      .   S
    C139   O719      0.63832      .   S
    C327   O719      0.63832      .   S
    C156   O720      0.69518      .   S
    C152   O720      0.69518      .   S
    C156   O721      0.54457      .   S
    C20    O721      0.54457      .   S
    C157   O722      0.69515      .   S
    C153   O722      0.69515      .   S
    C157   O723      0.54464      .   S
    C21    O723      0.54464      .   S
    C159   O724      0.69514  1_655   S
    C154   O724      0.69514      .   S
    C159   O725      0.54449      .   S
    C23    O725      0.54449      .   S
    C152   O726      0.54432      .   S
    C16    O726      0.54432      .   S
    C153   O727      0.54439      .   S
    C17    O727      0.54439      .   S
    C158   O728      0.69520      .   S
    C155   O728      0.69520      .   S
    C158   O729      0.54452      .   S
    C22    O729      0.54452      .   S
    C154   O730      0.54437      .   S
    C18    O730      0.54437      .   S
    C155   O731      0.54436      .   S
    C19    O731      0.54436      .   S
    C190   O732      0.69677      .   S
    C180   O732      0.69677      .   S
    C190   O733      0.54486      .   S
    C50    O733      0.54486      .   S
    C189   O734      0.69702      .   S
    C179   O734      0.69702      .   S
    C189   O735      0.54506      .   S
    C49    O735      0.54506      .   S
    C191   O736      0.69688      .   S
    C181   O736      0.69688      .   S
    C191   O737      0.54496      .   S
    C51    O737      0.54496      .   S
    C261   O738      0.54413      .   S
    C85    O738      0.54413      .   S
    C261   O739      0.67507      .   S
    C309   O739      0.67507      .   S
    C188   O740      0.69691      .   S
    C178   O740      0.69691      .   S
    C188   O741      0.54497      .   S
    C48    O741      0.54497      .   S
    C263   O742      0.54409      .   S
    C87    O742      0.54409      .   S
    C263   O743      0.67502      .   S
    C309   O743      0.67502      .   S
    C260   O744      0.54413      .   S
    C84    O744      0.54413      .   S
    C260   O745      0.67506      .   S
    C308   O745      0.67506      .   S
    C262   O746      0.54415      .   S
    C86    O746      0.54415      .   S
    C262   O747      0.67500      .   S
    C308   O747      0.67500      .   S
    C179   O748      0.54472      .   S
    C41    O748      0.54472      .   S
    C180   O749      0.54469      .   S
    C42    O749      0.54469      .   S
    C178   O750      0.54473      .   S
    C40    O750      0.54473      .   S
    C181   O751      0.54472      .   S
    C43    O751      0.54472      .   S
    C320   O752      1.03317      .   S
    C2     O752      1.03317      .   S
    C321   O753      1.03424      .   S
    C3     O753      1.03424      .   S
    C322   O754      1.03578      .   S
    C2     O754      1.03578      .   S
    C323   O755      1.03837      .   S
    C3     O755      1.03837      .   S
    C324   O756      1.05859      .   S
    C2     O756      1.05859      .   S
    C325   O757      1.05675      .   S
    C3     O757      1.05675      .   S
    C326   O758      1.05936      .   S
    C2     O758      1.05936      .   S
    C327   O759      1.05942      .   S
    C3     O759      1.05942      .   S
    C0     O760      1.39899      .   S
    C2     O760      1.39899      .   S
    C1     O761      1.39474      .   S
    C3     O761      1.39474      .   S
    C4     O762      1.40364      .   S
    C6     O762      1.40364      .   S
    C5     O763      1.40408      .   S
    C7     O763      1.40408      .   S
