# CIF file generated by openbabel 2.4.90, see http://openbabel.sf.net
data_I
_chemical_name_common ''
_cell_length_a 23.416
_cell_length_b 15.734
_cell_length_c 18.046
_cell_angle_alpha 88.64
_cell_angle_beta 89.846
_cell_angle_gamma 90.01
_space_group_name_H-M_alt 'P 1'
_space_group_name_Hall 'P 1'
loop_
    _symmetry_equiv_pos_as_xyz
    x,y,z
loop_
    _atom_site_label
    _atom_site_type_symbol
    _atom_site_fract_x
    _atom_site_fract_y
    _atom_site_fract_z
    _atom_site_occupancy
    N0      N    0.62949   0.49934   0.36085   1.000
    N1      N    0.87996   0.00494   0.85414   1.000
    N2      N    0.37986   0.50065   0.64049   1.000
    N3      N    0.37995   0.00455   0.85426   1.000
    N4      N    0.12945   0.49931   0.36002   1.000
    N5      N    0.12916   0.99474   0.14601   1.000
    N6      N    0.62923   0.99473   0.14633   1.000
    N7      N    0.87986   0.50095   0.64034   1.000
    Zr8     Zr   0.63003   0.50467   0.85990   1.000
    O9      O    0.62978   0.50391   0.70172   1.000
    O10     O    0.71663   0.34019   0.85896   1.000
    O11     O    0.62982   0.50240   0.01905   1.000
    O12     O    0.54338   0.66924   0.85899   1.000
    O13     O    0.71591   0.67005   0.85690   1.000
    O14     O    0.54413   0.33927   0.85748   1.000
    Zr15    Zr   0.37928   0.49484   0.14177   1.000
    O16     O    0.29339   0.66016   0.14374   1.000
    O17     O    0.29257   0.33032   0.14226   1.000
    O18     O    0.46595   0.65927   0.14254   1.000
    O19     O    0.46516   0.32953   0.14426   1.000
    O20     O    0.37958   0.49728   0.98241   1.000
    O21     O    0.37922   0.49573   0.29989   1.000
    Zr22    Zr   0.87915   0.49474   0.14158   1.000
    O23     O    0.96587   0.65920   0.14232   1.000
    O24     O    0.96498   0.32942   0.14391   1.000
    O25     O    0.87916   0.49575   0.29974   1.000
    O26     O    0.79250   0.33027   0.14225   1.000
    O27     O    0.79332   0.66009   0.14375   1.000
    O28     O    0.87950   0.49735   0.98225   1.000
    Zr29    Zr   0.13003   0.50447   0.85933   1.000
    O30     O    0.12976   0.50379   0.70103   1.000
    O31     O    0.12982   0.50220   0.01843   1.000
    O32     O    0.04341   0.66927   0.85855   1.000
    O33     O    0.21660   0.33986   0.85859   1.000
    O34     O    0.04412   0.33932   0.85700   1.000
    O35     O    0.21594   0.66970   0.85650   1.000
loop_
    _geom_bond_atom_site_label_1
    _geom_bond_atom_site_label_2
    _geom_bond_distance
    _geom_bond_site_symmetry_2
    _ccdc_geom_bond_type
    Zr8    O9        2.85490      .   S
    N0     O9        6.15341      .   S
    Zr8    O10       3.28838      .   S
    N1     O10       6.51817      .   S
    Zr8    O11       2.87131  1_556   S
    N0     O11       6.16725      .   S
    Zr8    O12       3.28957      .   S
    N3     O12       6.51712  1_545   S
    Zr8    O13       3.28760      .   S
    N1     O13       6.51944  1_545   S
    Zr8    O14       3.29005      .   S
    N3     O14       6.52134      .   S
    Zr15   O16       3.28924      .   S
    N5     O16       6.52048      .   S
    Zr15   O17       3.28952      .   S
    N5     O17       6.51902  1_565   S
    Zr15   O18       3.28820      .   S
    N6     O18       6.51860      .   S
    Zr15   O19       3.28750      .   S
    N6     O19       6.51984  1_565   S
    Zr15   O20       2.87502  1_554   S
    N2     O20       6.16928      .   S
    Zr15   O21       2.85392      .   S
    N2     O21       6.14881      .   S
    Zr22   O23       3.28928      .   S
    N5     O23       6.51983  1_455   S
    Zr22   O24       3.28695      .   S
    N5     O24       6.52003  1_465   S
    Zr22   O25       2.85445      .   S
    N7     O25       6.14899      .   S
    Zr22   O26       3.28782      .   S
    N6     O26       6.51671  1_565   S
    Zr22   O27       3.28856      .   S
    N6     O27       6.51978      .   S
    Zr22   O28       2.87464  1_554   S
    N7     O28       6.16910      .   S
    Zr29   O30       2.85710      .   S
    N4     O30       6.15590      .   S
    Zr29   O31       2.87050  1_556   S
    N4     O31       6.16334      .   S
    Zr29   O32       3.29219      .   S
    N1     O32       6.52194  1_645   S
    Zr29   O33       3.28936      .   S
    N3     O33       6.51903      .   S
    Zr29   O34       3.28698      .   S
    N1     O34       6.51649  1_655   S
    Zr29   O35       3.28629      .   S
    N3     O35       6.51844  1_545   S
