# CIF file generated by openbabel 2.4.90, see http://openbabel.sf.net
data_I
_chemical_name_common ''
_cell_length_a 18.402
_cell_length_b 18.418
_cell_length_c 18.412
_cell_angle_alpha 60.334
_cell_angle_beta 60.264
_cell_angle_gamma 60.268
_space_group_name_H-M_alt 'P 1'
_space_group_name_Hall 'P 1'
loop_
    _symmetry_equiv_pos_as_xyz
    x,y,z
loop_
    _atom_site_label
    _atom_site_type_symbol
    _atom_site_fract_x
    _atom_site_fract_y
    _atom_site_fract_z
    _atom_site_occupancy
    N0      N    0.00000   1.00000   0.99998   1.000
    N1      N    0.50000   1.00000   0.50001   1.000
    N2      N    0.50000   1.00000   0.00000   1.000
    N3      N    0.00000   0.50000   0.50000   1.000
    N4      N    0.00000   0.50000   0.00000   1.000
    N5      N    0.50000   0.50000   0.50001   1.000
    Zr6     Zr   0.74999   0.75001   0.25001   1.000
    Zr7     Zr   0.25001   0.24998   0.74999   1.000
    O8      O    0.33247   0.16743   0.66745   1.000
    O9      O    0.16741   0.33243   0.66745   1.000
    O10     O    0.16756   0.33249   0.83257   1.000
    O11     O    0.33261   0.33252   0.66751   1.000
    O12     O    0.16741   0.16743   0.83238   1.000
    O13     O    0.33256   0.16753   0.83256   1.000
    O14     O    0.66753   0.83256   0.33256   1.000
    O15     O    0.83259   0.66756   0.33255   1.000
    O16     O    0.83245   0.66750   0.16743   1.000
    O17     O    0.66740   0.66747   0.33249   1.000
    O18     O    0.83259   0.83256   0.16762   1.000
    O19     O    0.66744   0.83246   0.16744   1.000
loop_
    _geom_bond_atom_site_label_1
    _geom_bond_atom_site_label_2
    _geom_bond_distance
    _geom_bond_site_symmetry_2
    _ccdc_geom_bond_type
    Zr7    O8        2.15303      .   S
    N1     O8        4.36704  1_565   S
    Zr7    O9        2.15490      .   S
    N3     O9        4.36960      .   S
    Zr7    O10       2.15284      .   S
    N4     O10       4.36787  1_554   S
    Zr7    O11       2.15503      .   S
    N5     O11       4.37021      .   S
    Zr7    O12       2.15526      .   S
    N0     O12       4.36982  1_565   S
    Zr7    O13       2.15466      .   S
    N2     O13       4.36985  1_564   S
    N1     O14       4.36709      .   S
    Zr6    O14       2.15308      .   S
    N3     O15       4.36964  1_455   S
    Zr6    O15       2.15495      .   S
    N4     O16       4.36782  1_455   S
    Zr6    O16       2.15288      .   S
    Zr6    O17       2.15503      .   S
    N5     O17       4.37021      .   S
    Zr6    O18       2.15526      .   S
    N0     O18       4.36983  1_456   S
    Zr6    O19       2.15465      .   S
    N2     O19       4.36979      .   S
