# CIF file generated by openbabel 2.4.90, see http://openbabel.sf.net
data_I
_chemical_name_common ''
_cell_length_a 18.402
_cell_length_b 18.418
_cell_length_c 18.412
_cell_angle_alpha 60.334
_cell_angle_beta 60.264
_cell_angle_gamma 60.268
_space_group_name_H-M_alt 'P 1'
_space_group_name_Hall 'P 1'
loop_
    _symmetry_equiv_pos_as_xyz
    x,y,z
loop_
    _atom_site_label
    _atom_site_type_symbol
    _atom_site_fract_x
    _atom_site_fract_y
    _atom_site_fract_z
    _atom_site_occupancy
    N0      N    0.00000   1.00000   0.99998   1.000
    N1      N    0.50000   1.00000   0.50001   1.000
    N2      N    0.50000   1.00000   0.00000   1.000
    N3      N    0.00000   0.50000   0.50000   1.000
    N4      N    0.00000   0.50000   0.00000   1.000
    N5      N    0.50000   0.50000   0.50001   1.000
    Zr6     Zr   0.74999   0.75001   0.25001   1.000
    O7      O    0.85115   0.81404   0.16762   1.000
    O8      O    0.85116   0.66757   0.31402   1.000
    O9      O    0.85107   0.66760   0.16746   1.000
    O10     O    0.81402   0.66754   0.35109   1.000
    O11     O    0.66750   0.66753   0.35107   1.000
    O12     O    0.66752   0.81403   0.35110   1.000
    O13     O    0.81383   0.66740   0.16740   1.000
    O14     O    0.66730   0.66742   0.31392   1.000
    O15     O    0.66730   0.81390   0.16741   1.000
    O16     O    0.66754   0.85109   0.31402   1.000
    O17     O    0.81403   0.85109   0.16761   1.000
    O18     O    0.66759   0.85102   0.16747   1.000
    Zr19    Zr   0.25001   0.24998   0.74999   1.000
    O20     O    0.18617   0.33260   0.83260   1.000
    O21     O    0.33271   0.33258   0.68609   1.000
    O22     O    0.33271   0.18610   0.83259   1.000
    O23     O    0.14885   0.18595   0.83237   1.000
    O24     O    0.14885   0.33242   0.68599   1.000
    O25     O    0.14894   0.33239   0.83253   1.000
    O26     O    0.18598   0.14890   0.83238   1.000
    O27     O    0.33242   0.14897   0.83254   1.000
    O28     O    0.33246   0.14890   0.68598   1.000
    O29     O    0.18598   0.33245   0.64891   1.000
    O30     O    0.33250   0.33246   0.64894   1.000
    O31     O    0.33248   0.18596   0.64891   1.000
loop_
    _geom_bond_atom_site_label_1
    _geom_bond_atom_site_label_2
    _geom_bond_distance
    _geom_bond_site_symmetry_2
    _ccdc_geom_bond_type
    Zr6    O7        2.18231      .   S
    N0     O7        4.38338  1_456   S
    Zr6    O8        2.18211      .   S
    N3     O8        4.38312  1_455   S
    Zr6    O9        2.17991      .   S
    N4     O9        4.38121  1_455   S
    Zr6    O10       2.18200      .   S
    N3     O10       4.38302  1_455   S
    Zr6    O11       2.18216      .   S
    N5     O11       4.38339      .   S
    Zr6    O12       2.18018      .   S
    N1     O12       4.38059      .   S
    Zr6    O13       2.18042      .   S
    N4     O13       4.38146  1_455   S
    Zr6    O14       2.18229      .   S
    N5     O14       4.38398      .   S
    Zr6    O15       2.18211      .   S
    N2     O15       4.38349      .   S
    Zr6    O16       2.18029      .   S
    N1     O16       4.38049      .   S
    Zr6    O17       2.18239      .   S
    N0     O17       4.38313  1_456   S
    Zr6    O18       2.18159      .   S
    N2     O18       4.38305      .   S
    Zr19   O20       2.18038      .   S
    N4     O20       4.38150  1_554   S
    Zr19   O21       2.18229      .   S
    N5     O21       4.38396      .   S
    Zr19   O22       2.18209      .   S
    N2     O22       4.38357  1_564   S
    Zr19   O23       2.18230      .   S
    N0     O23       4.38337  1_565   S
    Zr19   O24       2.18207      .   S
    N3     O24       4.38308      .   S
    Zr19   O25       2.17987      .   S
    N4     O25       4.38128  1_554   S
    Zr19   O26       2.18239      .   S
    N0     O26       4.38312  1_565   S
    Zr19   O27       2.18163      .   S
    N2     O27       4.38308  1_564   S
    Zr19   O28       2.18024      .   S
    N1     O28       4.38043  1_565   S
    Zr19   O29       2.18195      .   S
    N3     O29       4.38298      .   S
    Zr19   O30       2.18215      .   S
    N5     O30       4.38340      .   S
    Zr19   O31       2.18012      .   S
    N1     O31       4.38054  1_565   S
