# CIF file generated by openbabel 2.4.90, see http://openbabel.sf.net
data_I
_chemical_name_common ''
_cell_length_a 14.01
_cell_length_b 20.56
_cell_length_c 20.561
_cell_angle_alpha 89.85
_cell_angle_beta 93.673
_cell_angle_gamma 86.353
_space_group_name_H-M_alt 'P 1'
_space_group_name_Hall 'P 1'
loop_
    _symmetry_equiv_pos_as_xyz
    x,y,z
loop_
    _atom_site_label
    _atom_site_type_symbol
    _atom_site_fract_x
    _atom_site_fract_y
    _atom_site_fract_z
    _atom_site_occupancy
    H0      H    0.45506   0.17069   0.10863   1.000
    H1      H    0.45504   0.17069   0.60864   1.000
    H2      H    0.45505   0.67070   0.10863   1.000
    H3      H    0.45505   0.67070   0.60864   1.000
    H4      H    0.95505   0.17069   0.10863   1.000
    H5      H    0.95505   0.17069   0.60864   1.000
    H6      H    0.95506   0.67070   0.10863   1.000
    H7      H    0.95505   0.67070   0.60864   1.000
    H8      H    0.38308   0.36407   0.15021   1.000
    H9      H    0.38307   0.36407   0.65022   1.000
    H10     H    0.38308   0.86408   0.15021   1.000
    H11     H    0.38307   0.86408   0.65022   1.000
    H12     H    0.88309   0.36407   0.15021   1.000
    H13     H    0.88308   0.36407   0.65022   1.000
    H14     H    0.88309   0.86408   0.15021   1.000
    H15     H    0.88308   0.86408   0.65022   1.000
    H16     H    0.39980   0.18720   0.48959   1.000
    H17     H    0.39978   0.18720   0.98960   1.000
    H18     H    0.39980   0.68720   0.48959   1.000
    H19     H    0.39979   0.68721   0.98960   1.000
    H20     H    0.89979   0.18719   0.48959   1.000
    H21     H    0.89979   0.18720   0.98960   1.000
    H22     H    0.89980   0.68720   0.48959   1.000
    H23     H    0.89979   0.68720   0.98960   1.000
    H24     H    0.32081   0.38727   0.03181   1.000
    H25     H    0.32082   0.38728   0.53182   1.000
    H26     H    0.32083   0.88729   0.03180   1.000
    H27     H    0.32082   0.88728   0.53182   1.000
    H28     H    0.82084   0.38728   0.03180   1.000
    H29     H    0.82081   0.38727   0.53182   1.000
    H30     H    0.82083   0.88728   0.03180   1.000
    H31     H    0.82083   0.88729   0.53180   1.000
    H32     H    0.29498   0.10864   0.17070   1.000
    H33     H    0.29498   0.10864   0.67071   1.000
    H34     H    0.29499   0.60865   0.17070   1.000
    H35     H    0.29497   0.60865   0.67071   1.000
    H36     H    0.79498   0.10864   0.17070   1.000
    H37     H    0.79497   0.10864   0.67071   1.000
    H38     H    0.79499   0.60865   0.17070   1.000
    H39     H    0.79498   0.60865   0.67071   1.000
    H40     H    0.36693   0.15024   0.36410   1.000
    H41     H    0.36693   0.15024   0.86411   1.000
    H42     H    0.36693   0.65025   0.36410   1.000
    H43     H    0.36693   0.65024   0.86411   1.000
    H44     H    0.86694   0.15024   0.36410   1.000
    H45     H    0.86693   0.15024   0.86411   1.000
    H46     H    0.86694   0.65025   0.36410   1.000
    H47     H    0.86694   0.65025   0.86411   1.000
    H48     H    0.35027   0.48962   0.18722   1.000
    H49     H    0.35027   0.48962   0.68722   1.000
    H50     H    0.35027   0.98963   0.18721   1.000
    H51     H    0.35026   0.98963   0.68723   1.000
    H52     H    0.85028   0.48962   0.18721   1.000
    H53     H    0.85027   0.48962   0.68723   1.000
    H54     H    0.85028   0.98963   0.18721   1.000
    H55     H    0.85027   0.98963   0.68720   1.000
    H56     H    0.42918   0.03185   0.38730   1.000
    H57     H    0.42917   0.03185   0.88734   1.000
    H58     H    0.42918   0.53186   0.38733   1.000
    H59     H    0.42921   0.53186   0.88733   1.000
    H60     H    0.92920   0.03186   0.38732   1.000
    H61     H    0.92920   0.03186   0.88733   1.000
    H62     H    0.92920   0.53186   0.38732   1.000
    H63     H    0.92920   0.53186   0.88733   1.000
    H64     H    0.04496   0.32932   0.39138   1.000
    H65     H    0.04496   0.32932   0.89139   1.000
    H66     H    0.04497   0.82933   0.39138   1.000
    H67     H    0.04496   0.82933   0.89139   1.000
    H68     H    0.54497   0.32932   0.39138   1.000
    H69     H    0.54495   0.32932   0.89139   1.000
    H70     H    0.54497   0.82933   0.39138   1.000
    H71     H    0.54497   0.82933   0.89139   1.000
    H72     H    0.11692   0.13594   0.34980   1.000
    H73     H    0.11692   0.13594   0.84981   1.000
    H74     H    0.11693   0.63595   0.34979   1.000
    H75     H    0.11693   0.63595   0.84980   1.000
    H76     H    0.61693   0.13594   0.34979   1.000
    H77     H    0.61693   0.13594   0.84981   1.000
    H78     H    0.61694   0.63595   0.34979   1.000
    H79     H    0.61693   0.63595   0.84980   1.000
    H80     H    0.10022   0.31281   0.01042   1.000
    H81     H    0.10022   0.31281   0.51043   1.000
    H82     H    0.10023   0.81282   0.01042   1.000
    H83     H    0.10022   0.81281   0.51043   1.000
    C84     C    0.89284   0.50148   0.78905   1.000
    C85     C    0.32566   0.08817   0.21700   1.000
    C86     C    0.32565   0.08817   0.71702   1.000
    C87     C    0.32566   0.58818   0.21700   1.000
    H88     H    0.60023   0.31281   0.01042   1.000
    H89     H    0.60022   0.31281   0.51043   1.000
    H90     H    0.60023   0.81281   0.01042   1.000
    H91     H    0.60022   0.81282   0.51043   1.000
    H92     H    0.17918   0.11273   0.46820   1.000
    H93     H    0.17917   0.11273   0.96821   1.000
    H94     H    0.17918   0.61273   0.46800   1.000
    H95     H    0.17919   0.61274   0.96820   1.000
    H96     H    0.67918   0.11273   0.46820   1.000
    H97     H    0.67919   0.11273   0.96821   1.000
    H98     H    0.67920   0.61274   0.46819   1.000
    H99     H    0.67919   0.61274   0.96820   1.000
    H100    H    0.20503   0.39136   0.32930   1.000
    H101    H    0.20503   0.39136   0.82931   1.000
    H102    H    0.20503   0.89137   0.32930   1.000
    H103    H    0.20503   0.89137   0.82931   1.000
    H104    H    0.70504   0.39136   0.32930   1.000
    H105    H    0.70503   0.39136   0.82931   1.000
    H106    H    0.70504   0.89137   0.32930   1.000
    H107    H    0.70504   0.89137   0.82931   1.000
    H108    H    0.13308   0.34977   0.13590   1.000
    H109    H    0.13306   0.34977   0.63590   1.000
    H110    H    0.13308   0.84978   0.13590   1.000
    H111    H    0.13307   0.84978   0.63591   1.000
    H112    H    0.63308   0.34977   0.13590   1.000
    H113    H    0.63308   0.34977   0.63591   1.000
    H114    H    0.63309   0.84978   0.13590   1.000
    H115    H    0.63308   0.84978   0.63591   1.000
    C116    C    0.11711   0.17211   0.38840   1.000
    C117    C    0.11710   0.17211   0.88841   1.000
    C118    C    0.11710   0.67212   0.38840   1.000
    C119    C    0.11711   0.67212   0.88841   1.000
    C120    C    0.61711   0.17211   0.38840   1.000
    H121    H    0.14975   0.01039   0.31279   1.000
    H122    H    0.14974   0.01038   0.81280   1.000
    H123    H    0.14974   0.51039   0.31279   1.000
    H124    H    0.14975   0.51039   0.81280   1.000
    H125    H    0.64975   0.01038   0.31279   1.000
    H126    H    0.64975   0.01038   0.81280   1.000
    H127    H    0.64975   0.51040   0.31279   1.000
    H128    H    0.64975   0.51039   0.81280   1.000
    H129    H    0.07082   0.46815   0.11268   1.000
    H130    H    0.07081   0.46815   0.61270   1.000
    H131    H    0.07082   0.96816   0.11268   1.000
    H132    H    0.07081   0.96817   0.61269   1.000
    H133    H    0.57082   0.46815   0.11268   1.000
    H134    H    0.57082   0.46816   0.61269   1.000
    H135    H    0.57082   0.96816   0.11268   1.000
    H136    H    0.57082   0.96816   0.61200   1.000
    C137    C    0.35719   0.28900   0.00144   1.000
    C138    C    0.35720   0.28901   0.50145   1.000
    C139    C    0.35721   0.78901   0.00144   1.000
    C140    C    0.35720   0.78901   0.50145   1.000
    C141    C    0.85721   0.28901   0.00144   1.000
    C142    C    0.85719   0.28900   0.50145   1.000
    C143    C    0.85719   0.78901   0.00144   1.000
    C144    C    0.85720   0.78901   0.50145   1.000
    C145    C    0.42436   0.21698   0.08816   1.000
    C146    C    0.42436   0.21698   0.58817   1.000
    C147    C    0.42437   0.71699   0.08810   1.000
    C148    C    0.42437   0.71699   0.58810   1.000
    C149    C    0.92437   0.21698   0.08810   1.000
    C150    C    0.92436   0.21698   0.58810   1.000
    C151    C    0.92436   0.71699   0.08816   1.000
    C152    C    0.92437   0.71699   0.58810   1.000
    C153    C    0.38290   0.32789   0.11160   1.000
    C154    C    0.38290   0.32789   0.61160   1.000
    C155    C    0.38291   0.82790   0.11160   1.000
    C156    C    0.38290   0.82790   0.61160   1.000
    C157    C    0.88291   0.32790   0.11160   1.000
    C158    C    0.88289   0.32789   0.61160   1.000
    C159    C    0.88290   0.82790   0.11160   1.000
    C160    C    0.88290   0.82790   0.61161   1.000
    C161    C    0.39388   0.22749   0.02351   1.000
    C162    C    0.39389   0.22749   0.52352   1.000
    C163    C    0.39389   0.72750   0.02351   1.000
    C164    C    0.39388   0.72750   0.52352   1.000
    C165    C    0.89390   0.22750   0.02350   1.000
    C166    C    0.89388   0.22749   0.52352   1.000
    C167    C    0.89390   0.72750   0.02351   1.000
    C168    C    0.89390   0.72750   0.52350   1.000
    C169    C    0.35020   0.33901   0.04742   1.000
    C170    C    0.35021   0.33902   0.54743   1.000
    C171    C    0.35022   0.83902   0.04742   1.000
    C172    C    0.35021   0.83902   0.54743   1.000
    C173    C    0.85023   0.33902   0.04742   1.000
    C174    C    0.85020   0.33901   0.54743   1.000
    C175    C    0.85022   0.83902   0.04742   1.000
    C176    C    0.85022   0.83903   0.54743   1.000
    C177    C    0.39283   0.00147   0.28904   1.000
    C178    C    0.39283   0.00147   0.78906   1.000
    C179    C    0.39283   0.50148   0.28904   1.000
    C180    C    0.39285   0.50148   0.78905   1.000
    C181    C    0.89284   0.00147   0.28904   1.000
    C182    C    0.89286   0.00147   0.78905   1.000
    C183    C    0.89285   0.50148   0.28904   1.000
    O184    O    0.29202   0.19156   0.25811   1.000
    O185    O    0.29201   0.19156   0.75812   1.000
    O186    O    0.29202   0.69156   0.25811   1.000
    O187    O    0.29201   0.69156   0.75813   1.000
    O188    O    0.79202   0.19156   0.25810   1.000
    C189    C    0.32566   0.58818   0.71701   1.000
    C190    C    0.82566   0.08817   0.21700   1.000
    C191    C    0.82567   0.08817   0.71701   1.000
    C192    C    0.82567   0.58818   0.21700   1.000
    C193    C    0.82566   0.58818   0.71701   1.000
    C194    C    0.36710   0.11163   0.32793   1.000
    C195    C    0.36710   0.11163   0.82794   1.000
    C196    C    0.36711   0.61164   0.32793   1.000
    C197    C    0.36712   0.61164   0.82793   1.000
    C198    C    0.86711   0.11163   0.32792   1.000
    C199    C    0.86712   0.11163   0.82793   1.000
    C200    C    0.86712   0.61164   0.32792   1.000
    C201    C    0.86711   0.61164   0.82790   1.000
    C202    C    0.35617   0.02353   0.22752   1.000
    C203    C    0.35615   0.02353   0.72753   1.000
    C204    C    0.35616   0.52354   0.22752   1.000
    C205    C    0.35617   0.52354   0.72753   1.000
    C206    C    0.85617   0.02353   0.22752   1.000
    C207    C    0.85617   0.02353   0.72753   1.000
    C208    C    0.85617   0.52354   0.22752   1.000
    C209    C    0.85616   0.52354   0.72753   1.000
    C210    C    0.39981   0.04746   0.33905   1.000
    C211    C    0.39979   0.04746   0.83907   1.000
    C212    C    0.39980   0.54747   0.33906   1.000
    C213    C    0.39983   0.54747   0.83906   1.000
    C214    C    0.89982   0.04746   0.33905   1.000
    C215    C    0.89982   0.04746   0.83906   1.000
    C216    C    0.89982   0.54747   0.33905   1.000
    C217    C    0.89981   0.54747   0.83906   1.000
    C218    C    0.14282   0.21100   0.49856   1.000
    C219    C    0.14280   0.21100   0.99850   1.000
    C220    C    0.14280   0.71101   0.49850   1.000
    C221    C    0.14281   0.71101   0.99857   1.000
    C222    C    0.64280   0.21100   0.49850   1.000
    C223    C    0.64282   0.21101   0.99857   1.000
    C224    C    0.64281   0.71101   0.49856   1.000
    C225    C    0.64281   0.71101   0.99857   1.000
    C226    C    0.07565   0.28302   0.41185   1.000
    C227    C    0.07564   0.28303   0.91186   1.000
    C228    C    0.07564   0.78303   0.41185   1.000
    C229    C    0.07565   0.78304   0.91186   1.000
    C230    C    0.57565   0.28302   0.41185   1.000
    C231    C    0.57565   0.28303   0.91186   1.000
    C232    C    0.57565   0.78303   0.41185   1.000
    C233    C    0.57565   0.78303   0.91186   1.000
    C234    C    0.61711   0.17212   0.88841   1.000
    C235    C    0.61712   0.67212   0.38840   1.000
    C236    C    0.61711   0.67212   0.88841   1.000
    C237    C    0.10612   0.27251   0.47650   1.000
    C238    C    0.10612   0.27251   0.97651   1.000
    C239    C    0.10613   0.77252   0.47650   1.000
    C240    C    0.10613   0.77252   0.97651   1.000
    C241    C    0.60613   0.27251   0.47650   1.000
    C242    C    0.60613   0.27252   0.97651   1.000
    C243    C    0.60613   0.77252   0.47650   1.000
    C244    C    0.60613   0.77252   0.97651   1.000
    C245    C    0.14979   0.16099   0.45258   1.000
    C246    C    0.14979   0.16099   0.95259   1.000
    C247    C    0.14979   0.66099   0.45258   1.000
    C248    C    0.14980   0.66100   0.95259   1.000
    C249    C    0.64979   0.16099   0.45258   1.000
    C250    C    0.64980   0.16099   0.95259   1.000
    C251    C    0.64981   0.66100   0.45258   1.000
    C252    C    0.64980   0.66100   0.95259   1.000
    C253    C    0.10717   0.49854   0.21090   1.000
    C254    C    0.10716   0.49854   0.71098   1.000
    C255    C    0.10717   0.99854   0.21090   1.000
    C256    C    0.10716   0.99854   0.71098   1.000
    C257    C    0.60716   0.49854   0.21097   1.000
    C258    C    0.60717   0.49854   0.71098   1.000
    C259    C    0.60716   0.99854   0.21097   1.000
    C260    C    0.60717   0.99855   0.71098   1.000
    C261    C    0.17435   0.41184   0.28300   1.000
    C262    C    0.17434   0.41184   0.78301   1.000
    C263    C    0.17435   0.91184   0.28300   1.000
    C264    C    0.17434   0.91184   0.78300   1.000
    C265    C    0.67435   0.41184   0.28300   1.000
    C266    C    0.67435   0.41184   0.78301   1.000
    C267    C    0.67435   0.91184   0.28300   1.000
    C268    C    0.67435   0.91184   0.78301   1.000
    C269    C    0.13290   0.38838   0.17208   1.000
    C270    C    0.13289   0.38838   0.67209   1.000
    C271    C    0.13290   0.88838   0.17208   1.000
    C272    C    0.13289   0.88838   0.67209   1.000
    C273    C    0.63290   0.38838   0.17208   1.000
    C274    C    0.63290   0.38838   0.67209   1.000
    C275    C    0.63290   0.88838   0.17208   1.000
    C276    C    0.63290   0.88838   0.67209   1.000
    C277    C    0.14385   0.47647   0.27249   1.000
    C278    C    0.14385   0.47647   0.77250   1.000
    C279    C    0.14385   0.97648   0.27249   1.000
    C280    C    0.14385   0.97648   0.77250   1.000
    C281    C    0.64385   0.47647   0.27249   1.000
    C282    C    0.64385   0.47647   0.77250   1.000
    C283    C    0.64385   0.97648   0.27249   1.000
    C284    C    0.64385   0.97648   0.77250   1.000
    C285    C    0.10020   0.45255   0.16095   1.000
    C286    C    0.10019   0.45255   0.66096   1.000
    C287    C    0.10020   0.95256   0.16095   1.000
    C288    C    0.10020   0.95256   0.66096   1.000
    C289    C    0.60020   0.45255   0.16095   1.000
    C290    C    0.60020   0.45255   0.66096   1.000
    C291    C    0.60021   0.95256   0.16095   1.000
    C292    C    0.60020   0.95256   0.66096   1.000
    N293    N    0.42086   0.26751   0.13071   1.000
    N294    N    0.42087   0.26751   0.63072   1.000
    N295    N    0.42088   0.76752   0.13071   1.000
    N296    N    0.42087   0.76752   0.63072   1.000
    N297    N    0.92088   0.26751   0.13071   1.000
    N298    N    0.92086   0.26751   0.63072   1.000
    N299    N    0.92087   0.76752   0.13071   1.000
    N300    N    0.92087   0.76752   0.63072   1.000
    N301    N    0.32915   0.13073   0.26753   1.000
    N302    N    0.32914   0.13073   0.76754   1.000
    N303    N    0.32915   0.63074   0.26753   1.000
    N304    N    0.32916   0.63074   0.76754   1.000
    N305    N    0.82915   0.13073   0.26753   1.000
    N306    N    0.82917   0.13073   0.76754   1.000
    N307    N    0.82916   0.63074   0.26753   1.000
    N308    N    0.82915   0.63074   0.76754   1.000
    N309    N    0.07914   0.23250   0.36930   1.000
    N310    N    0.07913   0.23250   0.86931   1.000
    N311    N    0.07913   0.73250   0.36930   1.000
    N312    N    0.07914   0.73251   0.86931   1.000
    N313    N    0.57913   0.23249   0.36930   1.000
    N314    N    0.57914   0.23250   0.86931   1.000
    N315    N    0.57914   0.73251   0.36930   1.000
    N316    N    0.57914   0.73251   0.86931   1.000
    N317    N    0.17085   0.36928   0.23247   1.000
    N318    N    0.17084   0.36928   0.73249   1.000
    N319    N    0.17086   0.86929   0.23247   1.000
    N320    N    0.17084   0.86929   0.73249   1.000
    N321    N    0.67085   0.36928   0.23240   1.000
    N322    N    0.67085   0.36928   0.73240   1.000
    N323    N    0.67085   0.86929   0.23248   1.000
    N324    N    0.67085   0.86929   0.73249   1.000
    O325    O    0.45798   0.25811   0.19150   1.000
    O326    O    0.45797   0.25810   0.69157   1.000
    O327    O    0.45798   0.75811   0.19150   1.000
    O328    O    0.45797   0.75812   0.69157   1.000
    O329    O    0.95798   0.25810   0.19150   1.000
    O330    O    0.95797   0.25811   0.69157   1.000
    O331    O    0.95799   0.75812   0.19155   1.000
    O332    O    0.95798   0.75811   0.69150   1.000
    O333    O    0.79200   0.19155   0.75813   1.000
    O334    O    0.79202   0.69156   0.25811   1.000
    O335    O    0.79201   0.69156   0.75812   1.000
    O336    O    0.04202   0.24190   0.30845   1.000
    O337    O    0.04202   0.24191   0.80846   1.000
    O338    O    0.04204   0.74191   0.30845   1.000
    O339    O    0.04202   0.74191   0.80846   1.000
    O340    O    0.54203   0.24190   0.30845   1.000
    O341    O    0.54202   0.24190   0.80846   1.000
    O342    O    0.54203   0.74191   0.30845   1.000
    O343    O    0.54202   0.74191   0.80846   1.000
    O344    O    0.20799   0.30845   0.24189   1.000
    O345    O    0.20799   0.30845   0.74190   1.000
    O346    O    0.20799   0.80846   0.24189   1.000
    O347    O    0.20799   0.80846   0.74190   1.000
    O348    O    0.70800   0.30845   0.24189   1.000
    O349    O    0.70798   0.30845   0.74190   1.000
    O350    O    0.70800   0.80846   0.24189   1.000
    O351    O    0.70799   0.80846   0.74190   1.000
loop_
    _geom_bond_atom_site_label_1
    _geom_bond_atom_site_label_2
    _geom_bond_distance
    _geom_bond_site_symmetry_2
    _ccdc_geom_bond_type
    C141   C165      1.39775      .   S
    C141   C173      1.40176      .   S
    C139   C163      1.39781      .   S
    C139   C171      1.40176      .   S
    C143   C167      1.39782      .   S
    C143   C175      1.40178      .   S
    C137   C161      1.39780      .   S
    C137   C169      1.40174      .   S
    H80    C238      1.08669  1_554   S
    H82    C240      1.08669  1_554   S
    H88    C242      1.08671  1_554   S
    H90    C244      1.08669  1_554   S
    C165   C149      1.38104      .   S
    C165   H21       1.08660  1_554   S
    C167   C151      1.38200      .   S
    C167   H23       1.08674  1_554   S
    C163   C147      1.38086      .   S
    C163   H19       1.08671  1_554   S
    C161   C145      1.38205      .   S
    C161   H17       1.08671  1_554   S
    H30    C175      1.08931      .   S
    H28    C173      1.08931      .   S
    H26    C171      1.08931      .   S
    H24    C169      1.08927      .   S
    C171   C155      1.38240      .   S
    C169   C153      1.38243      .   S
    C173   C157      1.38238      .   S
    C175   C159      1.38238      .   S
    C149   H4        1.09154      .   S
    C149   N297      1.36127      .   S
    C147   H2        1.09155      .   S
    C147   N295      1.36125      .   S
    C151   H6        1.09113      .   S
    C151   N299      1.36046      .   S
    C145   H0        1.09112      .   S
    C145   N293      1.36046      .   S
    C159   N299      1.36572      .   S
    C159   H14       1.08931      .   S
    C157   N297      1.36572      .   S
    C157   H12       1.08927      .   S
    C155   N295      1.36574      .   S
    C155   H10       1.08927      .   S
    C153   N293      1.36573      .   S
    C153   H8        1.08929      .   S
    H129   C285      1.08930      .   S
    H135   C291      1.08933      .   S
    H133   C289      1.08932      .   S
    H131   C287      1.08931      .   S
    N299   O331      1.33240      .   S
    N297   O329      1.33139      .   S
    N295   O327      1.33138      .   S
    N293   O325      1.33143      .   S
    H114   C275      1.08917      .   S
    H108   C269      1.08923      .   S
    H110   C271      1.08923      .   S
    H112   C273      1.08920      .   S
    C289   C273      1.38245      .   S
    C289   C257      1.40183      .   S
    C291   C275      1.38245      .   S
    C291   C259      1.40181      .   S
    C287   C271      1.38243      .   S
    C287   C255      1.40080      .   S
    C285   C269      1.38245      .   S
    C285   C253      1.40080      .   S
    H38    C192      1.09115      .   S
    H36    C190      1.09113      .   S
    H34    C87       1.09112      .   S
    H32    C85       1.09114      .   S
    C269   N317      1.36563      .   S
    C271   N319      1.36565      .   S
    C273   N321      1.36436      .   S
    C275   N323      1.36579      .   S
    H52    C208      1.08709      .   S
    H54    C206      1.08685  1_565   S
    H50    C202      1.08685  1_565   S
    H48    C204      1.08693      .   S
    C255   C279      1.39909      .   S
    C253   C277      1.39907      .   S
    C259   C283      1.39787      .   S
    C257   C281      1.39784      .   S
    C192   C208      1.38199      .   S
    C192   N307      1.36057      .   S
    C190   C206      1.38201      .   S
    C190   N305      1.36056      .   S
    C87    C204      1.38199      .   S
    C87    N303      1.36055      .   S
    C85    C202      1.38198      .   S
    C85    N301      1.36055      .   S
    C202   C177      1.39777      .   S
    C208   C183      1.39779      .   S
    C206   C181      1.39776      .   S
    C204   C179      1.39778      .   S
    N321   O348      1.33260      .   S
    N321   C265      1.36166      .   S
    N319   O346      1.33241      .   S
    N319   C263      1.36056      .   S
    N317   O344      1.33242      .   S
    N317   C261      1.36054      .   S
    N323   O350      1.33240      .   S
    N323   C267      1.36040      .   S
    O188   N305      1.33244      .   S
    O334   N307      1.33242      .   S
    O184   N301      1.33242      .   S
    O186   N303      1.33240      .   S
    N307   C200      1.36564      .   S
    N301   C194      1.36582      .   S
    N305   C198      1.36565      .   S
    N303   C196      1.36582      .   S
    C279   C263      1.38198      .   S
    C279   H121      1.08666  1_565   S
    C277   C261      1.38198      .   S
    C277   H123      1.08692      .   S
    C281   C265      1.38198      .   S
    C281   H127      1.08692      .   S
    C283   C267      1.38198      .   S
    C283   H125      1.08665  1_565   S
    C267   H106      1.09121      .   S
    C265   H104      1.09119      .   S
    C263   H102      1.09116      .   S
    C261   H100      1.09115      .   S
    C183   C216      1.40172      .   S
    C181   C214      1.40174      .   S
    C179   C212      1.40187      .   S
    C177   C210      1.40174      .   S
    O342   N315      1.33254      .   S
    O336   N309      1.33258      .   S
    O340   N313      1.33250      .   S
    O338   N311      1.33247      .   S
    C198   C214      1.38245      .   S
    C198   H44       1.08925      .   S
    C200   C216      1.38245      .   S
    C200   H46       1.08922      .   S
    C194   C210      1.38241      .   S
    C194   H40       1.08910      .   S
    C196   C212      1.38243      .   S
    C196   H42       1.08910      .   S
    C214   H60       1.08929      .   S
    C210   H56       1.08893      .   S
    C216   H62       1.08930      .   S
    C212   H58       1.08931      .   S
    H78    C235      1.08924      .   S
    H76    C120      1.08925      .   S
    H74    C118      1.08922      .   S
    H72    C116      1.08913      .   S
    N311   C118      1.36571      .   S
    N311   C228      1.36045      .   S
    N309   C116      1.36568      .   S
    N309   C226      1.36045      .   S
    N315   C235      1.36570      .   S
    N315   C232      1.36045      .   S
    N313   C120      1.36569      .   S
    N313   C230      1.36045      .   S
    C118   C247      1.38242      .   S
    C235   C251      1.38241      .   S
    C116   C245      1.38239      .   S
    C120   C249      1.38242      .   S
    H64    C226      1.09112      .   S
    H66    C228      1.09110      .   S
    H68    C230      1.09111      .   S
    H70    C232      1.09111      .   S
    C228   C239      1.38205      .   S
    C226   C237      1.38202      .   S
    C230   C241      1.38204      .   S
    C232   C243      1.38204      .   S
    C247   H94       1.08822      .   S
    C247   C220      1.40086      .   S
    C251   H98       1.08927      .   S
    C251   C224      1.40170      .   S
    C249   H96       1.08932      .   S
    C249   C222      1.40087      .   S
    C245   H92       1.08931      .   S
    C245   C218      1.40176      .   S
    C243   C224      1.39776      .   S
    C243   H91       1.08701      .   S
    C237   C218      1.39777      .   S
    C237   H81       1.08704      .   S
    C239   C220      1.39738      .   S
    C239   H83       1.08700      .   S
    C241   C222      1.39740      .   S
    C241   H89       1.08701      .   S
    H18    C164      1.08702      .   S
    H22    C168      1.08678      .   S
    H16    C162      1.08705      .   S
    H20    C166      1.08702      .   S
    C144   C168      1.39771      .   S
    C144   C176      1.40176      .   S
    C142   C166      1.39781      .   S
    C142   C174      1.40172      .   S
    C140   C164      1.39780      .   S
    C140   C172      1.40175      .   S
    C138   C162      1.39782      .   S
    C138   C170      1.40174      .   S
    C168   C152      1.38103      .   S
    C162   C146      1.38201      .   S
    C166   C150      1.38071      .   S
    C164   C148      1.38069      .   S
    H31    C176      1.08936      .   S
    H29    C174      1.08925      .   S
    H27    C172      1.08925      .   S
    H25    C170      1.08925      .   S
    C176   C160      1.38238      .   S
    C174   C158      1.38225      .   S
    C172   C156      1.38223      .   S
    C170   C154      1.38220      .   S
    C152   H7        1.09163      .   S
    C152   N300      1.36139      .   S
    C150   H5        1.09162      .   S
    C150   N298      1.36139      .   S
    C148   H3        1.09163      .   S
    C148   N296      1.36139      .   S
    C146   H1        1.09111      .   S
    C146   N294      1.36047      .   S
    C158   N298      1.36578      .   S
    C158   H13       1.08943      .   S
    C156   N296      1.36579      .   S
    C156   H11       1.08942      .   S
    C154   N294      1.36578      .   S
    C154   H9        1.08940      .   S
    C160   N300      1.36573      .   S
    C160   H15       1.08928      .   S
    H136   C292      1.10190      .   S
    H132   C288      1.08933      .   S
    H134   C290      1.08930      .   S
    H130   C286      1.08915      .   S
    N294   O326      1.33250      .   S
    N296   O328      1.33249      .   S
    N298   O330      1.33251      .   S
    N300   O332      1.33122      .   S
    H109   C270      1.08936      .   S
    H111   C272      1.08920      .   S
    H113   C274      1.08922      .   S
    H115   C276      1.08922      .   S
    C292   C276      1.38245      .   S
    C292   C260      1.40185      .   S
    C290   C274      1.38245      .   S
    C290   C258      1.40186      .   S
    C286   C270      1.38244      .   S
    C286   C254      1.40184      .   S
    C288   C272      1.38244      .   S
    C288   C256      1.40183      .   S
    H39    C193      1.09114      .   S
    H37    C191      1.09119      .   S
    H35    C189      1.09120      .   S
    H33    C86       1.09130      .   S
    C272   N320      1.36582      .   S
    C276   N324      1.36582      .   S
    C274   N322      1.36419      .   S
    C270   N318      1.36584      .   S
    H55    C207      1.08714  1_565   S
    H49    C205      1.08712      .   S
    H51    C203      1.08669  1_565   S
    H53    C209      1.08694      .   S
    C260   C284      1.39783      .   S
    C258   C282      1.39780      .   S
    C256   C280      1.39784      .   S
    C254   C278      1.39784      .   S
    C193   C209      1.38199      .   S
    C193   N308      1.36057      .   S
    C189   C205      1.38198      .   S
    C189   N304      1.36059      .   S
    C191   C207      1.38199      .   S
    C191   N306      1.36057      .   S
    C86    C203      1.38196      .   S
    C86    N302      1.36041      .   S
    C203   C178      1.39797      .   S
    C205   C180      1.39780      .   S
    C207   C182      1.39784      .   S
    C209   C84       1.39779      .   S
    N322   O349      1.33261      .   S
    N322   C266      1.36180      .   S
    N324   O351      1.33239      .   S
    N324   C268      1.36040      .   S
    N318   O345      1.33239      .   S
    N318   C262      1.36040      .   S
    N320   O347      1.33239      .   S
    N320   C264      1.36023      .   S
    O185   N302      1.33238      .   S
    O335   N308      1.33242      .   S
    O187   N304      1.33242      .   S
    O333   N306      1.33241      .   S
    N302   C195      1.36582      .   S
    N308   C201      1.36511      .   S
    N306   C199      1.36562      .   S
    N304   C197      1.36563      .   S
    C284   C268      1.38198      .   S
    C284   H126      1.08667  1_565   S
    C278   C262      1.38196      .   S
    C278   H124      1.08692      .   S
    C280   C264      1.38195      .   S
    C280   H122      1.08665  1_565   S
    C282   C266      1.38199      .   S
    C282   H128      1.08692      .   S
    C264   H103      1.09136      .   S
    C262   H101      1.09118      .   S
    C266   H105      1.09115      .   S
    C268   H107      1.09118      .   S
    C84    C217      1.40174      .   S
    C180   C213      1.40175      .   S
    C182   C215      1.40169      .   S
    C178   C211      1.40171      .   S
    O341   N314      1.33258      .   S
    O339   N312      1.33257      .   S
    O337   N310      1.33252      .   S
    O343   N316      1.33257      .   S
    C201   C217      1.38253      .   S
    C201   H47       1.08967      .   S
    C197   C213      1.38245      .   S
    C197   H43       1.08920      .   S
    C199   C215      1.38244      .   S
    C199   H45       1.08920      .   S
    C195   C211      1.38244      .   S
    C195   H41       1.08910      .   S
    C213   H59       1.08930      .   S
    C215   H61       1.08932      .   S
    C217   H63       1.08931      .   S
    C211   H57       1.08931      .   S
    H75    C119      1.08928      .   S
    H79    C236      1.08927      .   S
    H73    C117      1.08910      .   S
    H77    C234      1.08913      .   S
    N310   C117      1.36571      .   S
    N310   C227      1.36045      .   S
    N312   C119      1.36569      .   S
    N312   C229      1.36044      .   S
    N314   C234      1.36569      .   S
    N314   C231      1.36045      .   S
    N316   C236      1.36570      .   S
    N316   C233      1.36044      .   S
    C119   C248      1.38242      .   S
    C236   C252      1.38241      .   S
    C117   C246      1.38241      .   S
    C234   C250      1.38242      .   S
    H69    C231      1.09112      .   S
    H71    C233      1.09112      .   S
    H67    C229      1.09113      .   S
    H65    C227      1.09110      .   S
    C233   C244      1.38203      .   S
    C231   C242      1.38205      .   S
    C229   C240      1.38204      .   S
    C227   C238      1.38204      .   S
    C252   H99       1.08927      .   S
    C252   C225      1.40172      .   S
    C250   H97       1.08931      .   S
    C250   C223      1.40172      .   S
    C248   H95       1.08926      .   S
    C248   C221      1.40172      .   S
    C246   H93       1.08930      .   S
    C246   C219      1.40074      .   S
    C238   C219      1.39734      .   S
    C240   C221      1.39776      .   S
    C242   C223      1.39776      .   S
    C244   C225      1.39777      .   S
