# CIF file generated by openbabel 2.4.90, see http://openbabel.sf.net
data_I
_chemical_name_common ''
_cell_length_a 14.01
_cell_length_b 20.56
_cell_length_c 20.561
_cell_angle_alpha 89.85
_cell_angle_beta 93.673
_cell_angle_gamma 86.353
_space_group_name_H-M_alt 'P 1'
_space_group_name_Hall 'P 1'
loop_
    _symmetry_equiv_pos_as_xyz
    x,y,z
loop_
    _atom_site_label
    _atom_site_type_symbol
    _atom_site_fract_x
    _atom_site_fract_y
    _atom_site_fract_z
    _atom_site_occupancy
    C0      C    0.37502   0.28728   0.28720   1.000
    C1      C    0.37501   0.28728   0.78727   1.000
    C2      C    0.37502   0.78729   0.28726   1.000
    C3      C    0.37501   0.78729   0.78720   1.000
    C4      C    0.87502   0.28728   0.28726   1.000
    C5      C    0.87501   0.28728   0.78720   1.000
    C6      C    0.87502   0.78729   0.28720   1.000
    C7      C    0.87501   0.78729   0.78727   1.000
    C8      C    0.12499   0.21273   0.21275   1.000
    C9      C    0.12499   0.21273   0.71276   1.000
    C10     C    0.12499   0.71273   0.21275   1.000
    C11     C    0.12498   0.71274   0.71276   1.000
    C12     C    0.62499   0.21272   0.21275   1.000
    C13     C    0.62498   0.21273   0.71276   1.000
    C14     C    0.62499   0.71274   0.21275   1.000
    C15     C    0.62499   0.71274   0.71276   1.000
    C16     C    0.45506   0.17069   0.10863   1.000
    C17     C    0.45504   0.17069   0.60864   1.000
    C18     C    0.45505   0.67070   0.10863   1.000
    C19     C    0.45505   0.67070   0.60864   1.000
    C20     C    0.95505   0.17069   0.10863   1.000
    C21     C    0.95505   0.17069   0.60864   1.000
    C22     C    0.95506   0.67070   0.10863   1.000
    C23     C    0.95505   0.67070   0.60864   1.000
    C24     C    0.38308   0.36407   0.15021   1.000
    C25     C    0.38307   0.36407   0.65022   1.000
    C26     C    0.38308   0.86408   0.15021   1.000
    C27     C    0.38307   0.86408   0.65022   1.000
    C28     C    0.88309   0.36407   0.15021   1.000
    C29     C    0.88308   0.36407   0.65022   1.000
    C30     C    0.88309   0.86408   0.15021   1.000
    C31     C    0.88308   0.86408   0.65022   1.000
    C32     C    0.39980   0.18720   0.48959   1.000
    C33     C    0.39978   0.18720   0.98960   1.000
    C34     C    0.39980   0.68720   0.48959   1.000
    C35     C    0.39979   0.68721   0.98960   1.000
    C36     C    0.89979   0.18719   0.48959   1.000
    C37     C    0.89979   0.18720   0.98960   1.000
    C38     C    0.89980   0.68720   0.48959   1.000
    C39     C    0.89979   0.68720   0.98960   1.000
    C40     C    0.32081   0.38727   0.03181   1.000
    C41     C    0.32082   0.38728   0.53182   1.000
    C42     C    0.32083   0.88729   0.03180   1.000
    C43     C    0.32082   0.88728   0.53182   1.000
    C44     C    0.82084   0.38728   0.03180   1.000
    C45     C    0.82081   0.38727   0.53182   1.000
    C46     C    0.82083   0.88728   0.03180   1.000
    C47     C    0.82083   0.88729   0.53180   1.000
    C48     C    0.29498   0.10864   0.17070   1.000
    C49     C    0.29498   0.10864   0.67071   1.000
    C50     C    0.29499   0.60865   0.17070   1.000
    C51     C    0.29497   0.60865   0.67071   1.000
    C52     C    0.79498   0.10864   0.17070   1.000
    C53     C    0.79497   0.10864   0.67071   1.000
    C54     C    0.79499   0.60865   0.17070   1.000
    C55     C    0.79498   0.60865   0.67071   1.000
    C56     C    0.36693   0.15024   0.36410   1.000
    C57     C    0.36693   0.15024   0.86411   1.000
    C58     C    0.36693   0.65025   0.36410   1.000
    C59     C    0.36693   0.65024   0.86411   1.000
    C60     C    0.86694   0.15024   0.36410   1.000
    C61     C    0.86693   0.15024   0.86411   1.000
    C62     C    0.86694   0.65025   0.36410   1.000
    C63     C    0.86694   0.65025   0.86411   1.000
    C64     C    0.35027   0.48962   0.18722   1.000
    C65     C    0.35027   0.48962   0.68722   1.000
    C66     C    0.35027   0.98963   0.18721   1.000
    C67     C    0.35026   0.98963   0.68723   1.000
    C68     C    0.85028   0.48962   0.18721   1.000
    C69     C    0.85027   0.48962   0.68723   1.000
    C70     C    0.85028   0.98963   0.18721   1.000
    C71     C    0.85027   0.98963   0.68720   1.000
    C72     C    0.42918   0.03185   0.38730   1.000
    C73     C    0.42917   0.03185   0.88734   1.000
    C74     C    0.42918   0.53186   0.38733   1.000
    C75     C    0.42921   0.53186   0.88733   1.000
    C76     C    0.92920   0.03186   0.38732   1.000
    C77     C    0.92920   0.03186   0.88733   1.000
    C78     C    0.92920   0.53186   0.38732   1.000
    C79     C    0.92920   0.53186   0.88733   1.000
    C80     C    0.04496   0.32932   0.39138   1.000
    C81     C    0.04496   0.32932   0.89139   1.000
    C82     C    0.04497   0.82933   0.39138   1.000
    C83     C    0.04496   0.82933   0.89139   1.000
    C84     C    0.54497   0.32932   0.39138   1.000
    C85     C    0.54495   0.32932   0.89139   1.000
    C86     C    0.54497   0.82933   0.39138   1.000
    C87     C    0.54497   0.82933   0.89139   1.000
    C88     C    0.11692   0.13594   0.34980   1.000
    C89     C    0.11692   0.13594   0.84981   1.000
    C90     C    0.11693   0.63595   0.34979   1.000
    C91     C    0.11693   0.63595   0.84980   1.000
    C92     C    0.61693   0.13594   0.34979   1.000
    C93     C    0.61693   0.13594   0.84981   1.000
    C94     C    0.61694   0.63595   0.34979   1.000
    C95     C    0.61693   0.63595   0.84980   1.000
    C96     C    0.10022   0.31281   0.01042   1.000
    C97     C    0.10022   0.31281   0.51043   1.000
    C98     C    0.10023   0.81282   0.01042   1.000
    C99     C    0.10022   0.81281   0.51043   1.000
    C100    C    0.60023   0.31281   0.01042   1.000
    C101    C    0.60022   0.31281   0.51043   1.000
    C102    C    0.60023   0.81281   0.01042   1.000
    C103    C    0.60022   0.81282   0.51043   1.000
    C104    C    0.17918   0.11273   0.46820   1.000
    C105    C    0.17917   0.11273   0.96821   1.000
    C106    C    0.17918   0.61273   0.46800   1.000
    C107    C    0.17919   0.61274   0.96820   1.000
    C108    C    0.67918   0.11273   0.46820   1.000
    C109    C    0.67919   0.11273   0.96821   1.000
    C110    C    0.67920   0.61274   0.46819   1.000
    C111    C    0.67919   0.61274   0.96820   1.000
    C112    C    0.20503   0.39136   0.32930   1.000
    C113    C    0.20503   0.39136   0.82931   1.000
    C114    C    0.20503   0.89137   0.32930   1.000
    C115    C    0.20503   0.89137   0.82931   1.000
    C116    C    0.70504   0.39136   0.32930   1.000
    C117    C    0.70503   0.39136   0.82931   1.000
    C118    C    0.70504   0.89137   0.32930   1.000
    C119    C    0.70504   0.89137   0.82931   1.000
    C120    C    0.13308   0.34977   0.13590   1.000
    C121    C    0.13306   0.34977   0.63590   1.000
    C122    C    0.13308   0.84978   0.13590   1.000
    C123    C    0.13307   0.84978   0.63591   1.000
    C124    C    0.63308   0.34977   0.13590   1.000
    C125    C    0.63308   0.34977   0.63591   1.000
    C126    C    0.63309   0.84978   0.13590   1.000
    C127    C    0.63308   0.84978   0.63591   1.000
    C128    C    0.14975   0.01039   0.31279   1.000
    C129    C    0.14974   0.01038   0.81280   1.000
    C130    C    0.14974   0.51039   0.31279   1.000
    C131    C    0.14975   0.51039   0.81280   1.000
    C132    C    0.64975   0.01038   0.31279   1.000
    C133    C    0.64975   0.01038   0.81280   1.000
    C134    C    0.64975   0.51040   0.31279   1.000
    C135    C    0.64975   0.51039   0.81280   1.000
    C136    C    0.07082   0.46815   0.11268   1.000
    C137    C    0.07081   0.46815   0.61270   1.000
    C138    C    0.07082   0.96816   0.11268   1.000
    C139    C    0.07081   0.96817   0.61269   1.000
    C140    C    0.57082   0.46815   0.11268   1.000
    C141    C    0.57082   0.46816   0.61269   1.000
    C142    C    0.57082   0.96816   0.11268   1.000
    C143    C    0.57082   0.96816   0.61200   1.000
    C144    C    0.35719   0.28900   0.00144   1.000
    C145    C    0.35720   0.28901   0.50145   1.000
    C146    C    0.35721   0.78901   0.00144   1.000
    C147    C    0.35720   0.78901   0.50145   1.000
    C148    C    0.85721   0.28901   0.00144   1.000
    C149    C    0.85719   0.28900   0.50145   1.000
    C150    C    0.85719   0.78901   0.00144   1.000
    C151    C    0.85720   0.78901   0.50145   1.000
    C152    C    0.42436   0.21698   0.08816   1.000
    C153    C    0.42436   0.21698   0.58817   1.000
    C154    C    0.42437   0.71699   0.08810   1.000
    C155    C    0.42437   0.71699   0.58810   1.000
    C156    C    0.92437   0.21698   0.08810   1.000
    C157    C    0.92436   0.21698   0.58810   1.000
    C158    C    0.92436   0.71699   0.08816   1.000
    C159    C    0.92437   0.71699   0.58810   1.000
    C160    C    0.38290   0.32789   0.11160   1.000
    C161    C    0.38290   0.32789   0.61160   1.000
    C162    C    0.38291   0.82790   0.11160   1.000
    C163    C    0.38290   0.82790   0.61160   1.000
    C164    C    0.88291   0.32790   0.11160   1.000
    C165    C    0.88289   0.32789   0.61160   1.000
    C166    C    0.88290   0.82790   0.11160   1.000
    C167    C    0.88290   0.82790   0.61161   1.000
    C168    C    0.33040   0.30290   0.43002   1.000
    C169    C    0.33037   0.30290   0.93004   1.000
    C170    C    0.33039   0.80291   0.43002   1.000
    C171    C    0.33039   0.80291   0.93003   1.000
    C172    C    0.83037   0.30290   0.43000   1.000
    C173    C    0.83040   0.30291   0.93003   1.000
    C174    C    0.83041   0.80291   0.43002   1.000
    C175    C    0.83039   0.80291   0.93003   1.000
    C176    C    0.39388   0.22749   0.02351   1.000
    C177    C    0.39389   0.22749   0.52352   1.000
    C178    C    0.39389   0.72750   0.02351   1.000
    C179    C    0.39388   0.72750   0.52352   1.000
    C180    C    0.89390   0.22750   0.02350   1.000
    C181    C    0.89388   0.22749   0.52352   1.000
    C182    C    0.89390   0.72750   0.02351   1.000
    C183    C    0.89390   0.72750   0.52350   1.000
    C184    C    0.35020   0.33901   0.04742   1.000
    C185    C    0.35021   0.33902   0.54743   1.000
    C186    C    0.35022   0.83902   0.04742   1.000
    C187    C    0.35021   0.83902   0.54743   1.000
    C188    C    0.85023   0.33902   0.04742   1.000
    C189    C    0.85020   0.33901   0.54743   1.000
    C190    C    0.85022   0.83902   0.04742   1.000
    C191    C    0.85022   0.83903   0.54743   1.000
    C192    C    0.39283   0.00147   0.28904   1.000
    C193    C    0.39283   0.00147   0.78906   1.000
    C194    C    0.39283   0.50148   0.28904   1.000
    C195    C    0.39285   0.50148   0.78905   1.000
    C196    C    0.89284   0.00147   0.28904   1.000
    C197    C    0.89286   0.00147   0.78905   1.000
    C198    C    0.89285   0.50148   0.28904   1.000
    C199    C    0.89284   0.50148   0.78905   1.000
    C200    C    0.32566   0.08817   0.21700   1.000
    C201    C    0.32565   0.08817   0.71702   1.000
    C202    C    0.32566   0.58818   0.21700   1.000
    C203    C    0.32566   0.58818   0.71701   1.000
    C204    C    0.82566   0.08817   0.21700   1.000
    C205    C    0.82567   0.08817   0.71701   1.000
    C206    C    0.82567   0.58818   0.21700   1.000
    C207    C    0.82566   0.58818   0.71701   1.000
    C208    C    0.36710   0.11163   0.32793   1.000
    C209    C    0.36710   0.11163   0.82794   1.000
    C210    C    0.36711   0.61164   0.32793   1.000
    C211    C    0.36712   0.61164   0.82793   1.000
    C212    C    0.86711   0.11163   0.32792   1.000
    C213    C    0.86712   0.11163   0.82793   1.000
    C214    C    0.86712   0.61164   0.32792   1.000
    C215    C    0.86711   0.61164   0.82790   1.000
    C216    C    0.41961   0.43005   0.30294   1.000
    C217    C    0.41964   0.43006   0.80294   1.000
    C218    C    0.41962   0.93006   0.30294   1.000
    C219    C    0.41960   0.93006   0.80290   1.000
    C220    C    0.91963   0.43005   0.30294   1.000
    C221    C    0.91962   0.43005   0.80295   1.000
    C222    C    0.91963   0.93006   0.30290   1.000
    C223    C    0.91962   0.93006   0.80295   1.000
    C224    C    0.35617   0.02353   0.22752   1.000
    C225    C    0.35615   0.02353   0.72753   1.000
    C226    C    0.35616   0.52354   0.22752   1.000
    C227    C    0.35617   0.52354   0.72753   1.000
    C228    C    0.85617   0.02353   0.22752   1.000
    C229    C    0.85617   0.02353   0.72753   1.000
    C230    C    0.85617   0.52354   0.22752   1.000
    C231    C    0.85616   0.52354   0.72753   1.000
    C232    C    0.39981   0.04746   0.33905   1.000
    C233    C    0.39979   0.04746   0.83907   1.000
    C234    C    0.39980   0.54747   0.33906   1.000
    C235    C    0.39983   0.54747   0.83906   1.000
    C236    C    0.89982   0.04746   0.33905   1.000
    C237    C    0.89982   0.04746   0.83906   1.000
    C238    C    0.89982   0.54747   0.33905   1.000
    C239    C    0.89981   0.54747   0.83906   1.000
    C240    C    0.14282   0.21100   0.49856   1.000
    C241    C    0.14280   0.21100   0.99850   1.000
    C242    C    0.14280   0.71101   0.49850   1.000
    C243    C    0.14281   0.71101   0.99857   1.000
    C244    C    0.64280   0.21100   0.49850   1.000
    C245    C    0.64282   0.21101   0.99857   1.000
    C246    C    0.64281   0.71101   0.49856   1.000
    C247    C    0.64281   0.71101   0.99857   1.000
    C248    C    0.07565   0.28302   0.41185   1.000
    C249    C    0.07564   0.28303   0.91186   1.000
    C250    C    0.07564   0.78303   0.41185   1.000
    C251    C    0.07565   0.78304   0.91186   1.000
    C252    C    0.57565   0.28302   0.41185   1.000
    C253    C    0.57565   0.28303   0.91186   1.000
    C254    C    0.57565   0.78303   0.41185   1.000
    C255    C    0.57565   0.78303   0.91186   1.000
    C256    C    0.11711   0.17211   0.38840   1.000
    C257    C    0.11710   0.17211   0.88841   1.000
    C258    C    0.11710   0.67212   0.38840   1.000
    C259    C    0.11711   0.67212   0.88841   1.000
    C260    C    0.61711   0.17211   0.38840   1.000
    C261    C    0.61711   0.17212   0.88841   1.000
    C262    C    0.61712   0.67212   0.38840   1.000
    C263    C    0.61711   0.67212   0.88841   1.000
    C264    C    0.16961   0.19710   0.06998   1.000
    C265    C    0.16960   0.19710   0.56999   1.000
    C266    C    0.16962   0.69711   0.06998   1.000
    C267    C    0.16960   0.69711   0.56999   1.000
    C268    C    0.66962   0.19710   0.06998   1.000
    C269    C    0.66960   0.19710   0.56999   1.000
    C270    C    0.66961   0.69711   0.06998   1.000
    C271    C    0.66960   0.69711   0.56999   1.000
    C272    C    0.10612   0.27251   0.47650   1.000
    C273    C    0.10612   0.27251   0.97651   1.000
    C274    C    0.10613   0.77252   0.47650   1.000
    C275    C    0.10613   0.77252   0.97651   1.000
    C276    C    0.60613   0.27251   0.47650   1.000
    C277    C    0.60613   0.27252   0.97651   1.000
    C278    C    0.60613   0.77252   0.47650   1.000
    C279    C    0.60613   0.77252   0.97651   1.000
    C280    C    0.14979   0.16099   0.45258   1.000
    C281    C    0.14979   0.16099   0.95259   1.000
    C282    C    0.14979   0.66099   0.45258   1.000
    C283    C    0.14980   0.66100   0.95259   1.000
    C284    C    0.64979   0.16099   0.45258   1.000
    C285    C    0.64980   0.16099   0.95259   1.000
    C286    C    0.64981   0.66100   0.45258   1.000
    C287    C    0.64980   0.66100   0.95259   1.000
    C288    C    0.10717   0.49854   0.21090   1.000
    C289    C    0.10716   0.49854   0.71098   1.000
    C290    C    0.10717   0.99854   0.21090   1.000
    C291    C    0.10716   0.99854   0.71098   1.000
    C292    C    0.60716   0.49854   0.21097   1.000
    C293    C    0.60717   0.49854   0.71098   1.000
    C294    C    0.60716   0.99854   0.21097   1.000
    C295    C    0.60717   0.99855   0.71098   1.000
    C296    C    0.17435   0.41184   0.28300   1.000
    C297    C    0.17434   0.41184   0.78301   1.000
    C298    C    0.17435   0.91184   0.28300   1.000
    C299    C    0.17434   0.91184   0.78300   1.000
    C300    C    0.67435   0.41184   0.28300   1.000
    C301    C    0.67435   0.41184   0.78301   1.000
    C302    C    0.67435   0.91184   0.28300   1.000
    C303    C    0.67435   0.91184   0.78301   1.000
    C304    C    0.13290   0.38838   0.17208   1.000
    C305    C    0.13289   0.38838   0.67209   1.000
    C306    C    0.13290   0.88838   0.17208   1.000
    C307    C    0.13289   0.88838   0.67209   1.000
    C308    C    0.63290   0.38838   0.17208   1.000
    C309    C    0.63290   0.38838   0.67209   1.000
    C310    C    0.63290   0.88838   0.17208   1.000
    C311    C    0.63290   0.88838   0.67209   1.000
    C312    C    0.08039   0.06995   0.19707   1.000
    C313    C    0.08038   0.06995   0.69708   1.000
    C314    C    0.08038   0.56996   0.19707   1.000
    C315    C    0.08038   0.56996   0.69708   1.000
    C316    C    0.58039   0.06995   0.19707   1.000
    C317    C    0.58037   0.06995   0.69700   1.000
    C318    C    0.58038   0.56996   0.19707   1.000
    C319    C    0.58037   0.56996   0.69708   1.000
    C320    C    0.14385   0.47647   0.27249   1.000
    C321    C    0.14385   0.47647   0.77250   1.000
    C322    C    0.14385   0.97648   0.27249   1.000
    C323    C    0.14385   0.97648   0.77250   1.000
    C324    C    0.64385   0.47647   0.27249   1.000
    C325    C    0.64385   0.47647   0.77250   1.000
    C326    C    0.64385   0.97648   0.27249   1.000
    C327    C    0.64385   0.97648   0.77250   1.000
    C328    C    0.10020   0.45255   0.16095   1.000
    C329    C    0.10019   0.45255   0.66096   1.000
    C330    C    0.10020   0.95256   0.16095   1.000
    C331    C    0.10020   0.95256   0.66096   1.000
    C332    C    0.60020   0.45255   0.16095   1.000
    C333    C    0.60020   0.45255   0.66096   1.000
    C334    C    0.60021   0.95256   0.16095   1.000
    C335    C    0.60020   0.95256   0.66096   1.000
    C336    C    0.42086   0.26751   0.13071   1.000
    C337    C    0.42087   0.26751   0.63072   1.000
    C338    C    0.42088   0.76752   0.13071   1.000
    C339    C    0.42087   0.76752   0.63072   1.000
    C340    C    0.92088   0.26751   0.13071   1.000
    C341    C    0.92086   0.26751   0.63072   1.000
    C342    C    0.92087   0.76752   0.13071   1.000
    C343    C    0.92087   0.76752   0.63072   1.000
    C344    C    0.32915   0.13073   0.26753   1.000
    C345    C    0.32914   0.13073   0.76754   1.000
    C346    C    0.32915   0.63074   0.26753   1.000
    C347    C    0.32916   0.63074   0.76754   1.000
    C348    C    0.82915   0.13073   0.26753   1.000
    C349    C    0.82917   0.13073   0.76754   1.000
    C350    C    0.82916   0.63074   0.26753   1.000
    C351    C    0.82915   0.63074   0.76754   1.000
    C352    C    0.07914   0.23250   0.36930   1.000
    C353    C    0.07913   0.23250   0.86931   1.000
    C354    C    0.07913   0.73250   0.36930   1.000
    C355    C    0.07914   0.73251   0.86931   1.000
    C356    C    0.57913   0.23249   0.36930   1.000
    C357    C    0.57914   0.23250   0.86931   1.000
    C358    C    0.57914   0.73251   0.36930   1.000
    C359    C    0.57914   0.73251   0.86931   1.000
    C360    C    0.17085   0.36928   0.23247   1.000
    C361    C    0.17084   0.36928   0.73249   1.000
    C362    C    0.17086   0.86929   0.23247   1.000
    C363    C    0.17084   0.86929   0.73249   1.000
    C364    C    0.67085   0.36928   0.23240   1.000
    C365    C    0.67085   0.36928   0.73240   1.000
    C366    C    0.67085   0.86929   0.23248   1.000
    C367    C    0.67085   0.86929   0.73249   1.000
    C368    C    0.28330   0.35450   0.41410   1.000
    C369    C    0.28332   0.35451   0.91413   1.000
    C370    C    0.28331   0.85451   0.41412   1.000
    C371    C    0.28330   0.85451   0.91413   1.000
    C372    C    0.78333   0.35451   0.41412   1.000
    C373    C    0.78330   0.35450   0.91410   1.000
    C374    C    0.78331   0.85451   0.41410   1.000
    C375    C    0.78331   0.85452   0.91410   1.000
    C376    C    0.45798   0.25811   0.19150   1.000
    C377    C    0.45797   0.25810   0.69157   1.000
    C378    C    0.45798   0.75811   0.19150   1.000
    C379    C    0.45797   0.75812   0.69157   1.000
    C380    C    0.95798   0.25810   0.19150   1.000
    C381    C    0.95797   0.25811   0.69157   1.000
    C382    C    0.95799   0.75812   0.19155   1.000
    C383    C    0.95798   0.75811   0.69150   1.000
    C384    C    0.36286   0.25818   0.39126   1.000
    C385    C    0.36287   0.25819   0.89128   1.000
    C386    C    0.36287   0.75819   0.39120   1.000
    C387    C    0.36286   0.75819   0.89127   1.000
    C388    C    0.86287   0.25819   0.39127   1.000
    C389    C    0.86285   0.25818   0.89127   1.000
    C390    C    0.86286   0.75819   0.39126   1.000
    C391    C    0.86286   0.75819   0.89120   1.000
    C392    C    0.46666   0.41415   0.35457   1.000
    C393    C    0.46662   0.41415   0.85459   1.000
    C394    C    0.46665   0.91416   0.35457   1.000
    C395    C    0.46665   0.91417   0.85458   1.000
    C396    C    0.96665   0.41415   0.35457   1.000
    C397    C    0.96664   0.41415   0.85458   1.000
    C398    C    0.96665   0.91416   0.35457   1.000
    C399    C    0.96663   0.91417   0.85459   1.000
    C400    C    0.29202   0.19156   0.25811   1.000
    C401    C    0.29201   0.19156   0.75812   1.000
    C402    C    0.29202   0.69156   0.25811   1.000
    C403    C    0.29201   0.69156   0.75813   1.000
    C404    C    0.79202   0.19156   0.25810   1.000
    C405    C    0.79200   0.19155   0.75813   1.000
    C406    C    0.79202   0.69156   0.25811   1.000
    C407    C    0.79201   0.69156   0.75812   1.000
    C408    C    0.38718   0.39129   0.25810   1.000
    C409    C    0.38716   0.39130   0.75820   1.000
    C410    C    0.38718   0.89130   0.25819   1.000
    C411    C    0.38718   0.89130   0.75820   1.000
    C412    C    0.88718   0.39130   0.25819   1.000
    C413    C    0.88718   0.39130   0.75820   1.000
    C414    C    0.88718   0.89131   0.25819   1.000
    C415    C    0.88718   0.89131   0.75820   1.000
    C416    C    0.21668   0.14549   0.08588   1.000
    C417    C    0.21668   0.14550   0.58589   1.000
    C418    C    0.21668   0.64550   0.08588   1.000
    C419    C    0.21669   0.64551   0.58589   1.000
    C420    C    0.71668   0.14549   0.08588   1.000
    C421    C    0.71668   0.14550   0.58589   1.000
    C422    C    0.71669   0.64550   0.08588   1.000
    C423    C    0.71668   0.64550   0.58589   1.000
    C424    C    0.04202   0.24190   0.30845   1.000
    C425    C    0.04202   0.24191   0.80846   1.000
    C426    C    0.04204   0.74191   0.30845   1.000
    C427    C    0.04202   0.74191   0.80846   1.000
    C428    C    0.54203   0.24190   0.30845   1.000
    C429    C    0.54202   0.24190   0.80846   1.000
    C430    C    0.54203   0.74191   0.30845   1.000
    C431    C    0.54202   0.74191   0.80846   1.000
    C432    C    0.13714   0.24182   0.10874   1.000
    C433    C    0.13714   0.24182   0.60875   1.000
    C434    C    0.13714   0.74183   0.10874   1.000
    C435    C    0.13714   0.74183   0.60875   1.000
    C436    C    0.63714   0.24182   0.10874   1.000
    C437    C    0.63713   0.24182   0.60875   1.000
    C438    C    0.63714   0.74183   0.10874   1.000
    C439    C    0.63714   0.74183   0.60875   1.000
    C440    C    0.03334   0.08585   0.14544   1.000
    C441    C    0.03334   0.08585   0.64545   1.000
    C442    C    0.03335   0.58586   0.14544   1.000
    C443    C    0.03334   0.58586   0.64545   1.000
    C444    C    0.53335   0.08585   0.14544   1.000
    C445    C    0.53334   0.08585   0.64545   1.000
    C446    C    0.53335   0.58586   0.14544   1.000
    C447    C    0.53335   0.58586   0.64545   1.000
    C448    C    0.20799   0.30845   0.24189   1.000
    C449    C    0.20799   0.30845   0.74190   1.000
    C450    C    0.20799   0.80846   0.24189   1.000
    C451    C    0.20799   0.80846   0.74190   1.000
    C452    C    0.70800   0.30845   0.24189   1.000
    C453    C    0.70798   0.30845   0.74190   1.000
    C454    C    0.70800   0.80846   0.24189   1.000
    C455    C    0.70799   0.80846   0.74190   1.000
    C456    C    0.11282   0.10871   0.24182   1.000
    C457    C    0.11282   0.10871   0.74183   1.000
    C458    C    0.11282   0.60872   0.24182   1.000
    C459    C    0.11282   0.60872   0.74183   1.000
    C460    C    0.61282   0.10871   0.24182   1.000
    C461    C    0.61282   0.10871   0.74183   1.000
    C462    C    0.61282   0.60872   0.24182   1.000
    C463    C    0.61282   0.60872   0.74183   1.000
    O464    O    0.87555   0.25825   0.01247   1.000
    O465    O    0.85372   0.31401   0.02443   1.000
    O466    O    0.84380   0.29596   0.96573   1.000
    O467    O    0.37555   0.75825   0.01247   1.000
    O468    O    0.35371   0.81402   0.02443   1.000
    O469    O    0.34380   0.79596   0.96573   1.000
    O470    O    0.87554   0.75825   0.01247   1.000
    O471    O    0.85371   0.81402   0.02443   1.000
    O472    O    0.84379   0.79596   0.96573   1.000
    O473    O    0.37553   0.25824   0.01247   1.000
    O474    O    0.35369   0.31400   0.02443   1.000
    O475    O    0.34378   0.29595   0.96574   1.000
    O476    O    0.10317   0.29266   0.99347   1.000
    O477    O    0.10318   0.79267   0.99347   1.000
    O478    O    0.60318   0.29266   0.99347   1.000
    O479    O    0.60318   0.79267   0.99347   1.000
    O480    O    0.90913   0.22224   0.05580   1.000
    O481    O    0.89684   0.20735   0.00655   1.000
    O482    O    0.90913   0.72224   0.05584   1.000
    O483    O    0.89684   0.70735   0.00656   1.000
    O484    O    0.40913   0.72225   0.05580   1.000
    O485    O    0.39684   0.70735   0.00656   1.000
    O486    O    0.40912   0.22223   0.05584   1.000
    O487    O    0.39683   0.20734   0.00656   1.000
    O488    O    0.83553   0.86315   0.03961   1.000
    O489    O    0.83554   0.36315   0.03961   1.000
    O490    O    0.33553   0.86315   0.03961   1.000
    O491    O    0.33551   0.36314   0.03961   1.000
    O492    O    0.36656   0.83346   0.07951   1.000
    O493    O    0.36655   0.33345   0.07951   1.000
    O494    O    0.86657   0.33346   0.07951   1.000
    O495    O    0.86656   0.83346   0.07951   1.000
    O496    O    0.69315   0.67130   0.07793   1.000
    O497    O    0.65338   0.71947   0.08936   1.000
    O498    O    0.65621   0.70406   0.03427   1.000
    O499    O    0.69315   0.17130   0.07793   1.000
    O500    O    0.65338   0.21946   0.08936   1.000
    O501    O    0.65622   0.20405   0.03427   1.000
    O502    O    0.19315   0.67130   0.07793   1.000
    O503    O    0.15338   0.71947   0.08936   1.000
    O504    O    0.15622   0.70406   0.03427   1.000
    O505    O    0.19315   0.17130   0.07793   1.000
    O506    O    0.15338   0.21946   0.08936   1.000
    O507    O    0.15621   0.20405   0.03424   1.000
    O508    O    0.93971   0.19384   0.09836   1.000
    O509    O    0.92262   0.24225   0.10940   1.000
    O510    O    0.43971   0.69384   0.09836   1.000
    O511    O    0.42262   0.74226   0.10940   1.000
    O512    O    0.93971   0.69384   0.09840   1.000
    O513    O    0.92261   0.74225   0.10944   1.000
    O514    O    0.43971   0.19383   0.09840   1.000
    O515    O    0.42261   0.24224   0.10944   1.000
    O516    O    0.63107   0.72728   0.16074   1.000
    O517    O    0.63106   0.22727   0.16074   1.000
    O518    O    0.13107   0.72728   0.16074   1.000
    O519    O    0.13106   0.22727   0.16074   1.000
    O520    O    0.90188   0.79771   0.12115   1.000
    O521    O    0.88300   0.84599   0.13090   1.000
    O522    O    0.90189   0.29770   0.12115   1.000
    O523    O    0.88300   0.34598   0.13090   1.000
    O524    O    0.40189   0.79771   0.12115   1.000
    O525    O    0.38300   0.84599   0.13090   1.000
    O526    O    0.40188   0.29770   0.12115   1.000
    O527    O    0.38299   0.34598   0.13090   1.000
    O528    O    0.08551   0.46035   0.13682   1.000
    O529    O    0.58552   0.96036   0.13682   1.000
    O530    O    0.58551   0.46035   0.13682   1.000
    O531    O    0.08551   0.96036   0.13682   1.000
    O532    O    0.93943   0.76282   0.16113   1.000
    O533    O    0.93943   0.26281   0.16110   1.000
    O534    O    0.43943   0.76282   0.16110   1.000
    O535    O    0.43942   0.26281   0.16110   1.000
    O536    O    0.63299   0.86908   0.15399   1.000
    O537    O    0.13299   0.36907   0.15399   1.000
    O538    O    0.13299   0.86908   0.15399   1.000
    O539    O    0.63299   0.36907   0.15399   1.000
    O540    O    0.55687   0.07790   0.17125   1.000
    O541    O    0.55687   0.57791   0.17125   1.000
    O542    O    0.05687   0.57791   0.17125   1.000
    O543    O    0.05687   0.07790   0.17125   1.000
    O544    O    0.61655   0.42046   0.16651   1.000
    O545    O    0.60368   0.47554   0.18596   1.000
    O546    O    0.61655   0.92047   0.16651   1.000
    O547    O    0.60368   0.97555   0.18596   1.000
    O548    O    0.11655   0.92047   0.16651   1.000
    O549    O    0.10369   0.97555   0.18593   1.000
    O550    O    0.11655   0.42046   0.16651   1.000
    O551    O    0.10368   0.47554   0.18593   1.000
    O552    O    0.81033   0.59841   0.19385   1.000
    O553    O    0.81032   0.09841   0.19385   1.000
    O554    O    0.31032   0.59841   0.19385   1.000
    O555    O    0.31032   0.09841   0.19385   1.000
    O556    O    0.15188   0.37883   0.20228   1.000
    O557    O    0.15188   0.87884   0.20228   1.000
    O558    O    0.65187   0.37883   0.20224   1.000
    O559    O    0.65187   0.87883   0.20228   1.000
    O560    O    0.85323   0.50658   0.20736   1.000
    O561    O    0.85322   0.00658   0.20736   1.000
    O562    O    0.35322   0.00658   0.20736   1.000
    O563    O    0.35321   0.50658   0.20737   1.000
    O564    O    0.91650   0.27269   0.23938   1.000
    O565    O    0.41650   0.27269   0.23935   1.000
    O566    O    0.41650   0.77270   0.23938   1.000
    O567    O    0.91651   0.77270   0.23938   1.000
    O568    O    0.59377   0.53425   0.20402   1.000
    O569    O    0.59660   0.58934   0.21945   1.000
    O570    O    0.59377   0.03425   0.20402   1.000
    O571    O    0.59660   0.08933   0.21945   1.000
    O572    O    0.09377   0.53425   0.20399   1.000
    O573    O    0.09660   0.58934   0.21945   1.000
    O574    O    0.09378   0.03425   0.20399   1.000
    O575    O    0.09660   0.08933   0.21945   1.000
    O576    O    0.12551   0.98751   0.24169   1.000
    O577    O    0.12551   0.48750   0.24169   1.000
    O578    O    0.62551   0.98751   0.24173   1.000
    O579    O    0.62551   0.48750   0.24173   1.000
    O580    O    0.61891   0.66073   0.22728   1.000
    O581    O    0.66650   0.76060   0.22732   1.000
    O582    O    0.58351   0.72732   0.26060   1.000
    O583    O    0.61890   0.16072   0.22728   1.000
    O584    O    0.66649   0.26059   0.22732   1.000
    O585    O    0.58351   0.22731   0.26060   1.000
    O586    O    0.11890   0.16072   0.22728   1.000
    O587    O    0.16649   0.26059   0.22732   1.000
    O588    O    0.08350   0.22731   0.26060   1.000
    O589    O    0.11891   0.66073   0.22728   1.000
    O590    O    0.16649   0.76060   0.22732   1.000
    O591    O    0.08351   0.72732   0.26060   1.000
    O592    O    0.84092   0.55586   0.22226   1.000
    O593    O    0.82741   0.60946   0.24226   1.000
    O594    O    0.84092   0.05585   0.22226   1.000
    O595    O    0.82741   0.10945   0.24226   1.000
    O596    O    0.34091   0.55586   0.22226   1.000
    O597    O    0.32741   0.60946   0.24226   1.000
    O598    O    0.34091   0.05585   0.22226   1.000
    O599    O    0.32740   0.10945   0.24226   1.000
    O600    O    0.37450   0.01250   0.25828   1.000
    O601    O    0.87451   0.51251   0.25828   1.000
    O602    O    0.87451   0.01250   0.25828   1.000
    O603    O    0.37450   0.51251   0.25828   1.000
    O604    O    0.68942   0.33886   0.23714   1.000
    O605    O    0.67260   0.39056   0.25770   1.000
    O606    O    0.18942   0.83887   0.23718   1.000
    O607    O    0.17260   0.89057   0.25773   1.000
    O608    O    0.18942   0.33886   0.23718   1.000
    O609    O    0.17260   0.39056   0.25773   1.000
    O610    O    0.68942   0.83887   0.23718   1.000
    O611    O    0.67260   0.89056   0.25774   1.000
    O612    O    0.38110   0.33929   0.27265   1.000
    O613    O    0.40340   0.41067   0.28052   1.000
    O614    O    0.81059   0.16114   0.26281   1.000
    O615    O    0.83352   0.23942   0.27268   1.000
    O616    O    0.81059   0.66115   0.26282   1.000
    O617    O    0.83352   0.73943   0.27265   1.000
    O618    O    0.31058   0.16114   0.26282   1.000
    O619    O    0.33352   0.23942   0.27265   1.000
    O620    O    0.31058   0.66115   0.26282   1.000
    O621    O    0.33352   0.73943   0.27269   1.000
    O622    O    0.38110   0.83930   0.27272   1.000
    O623    O    0.40340   0.91068   0.28056   1.000
    O624    O    0.88110   0.83930   0.27269   1.000
    O625    O    0.90340   0.91068   0.28054   1.000
    O626    O    0.88110   0.33929   0.27272   1.000
    O627    O    0.90340   0.41068   0.28056   1.000
    O628    O    0.84814   0.62119   0.29772   1.000
    O629    O    0.34813   0.12118   0.29773   1.000
    O630    O    0.84813   0.12118   0.29772   1.000
    O631    O    0.34813   0.62119   0.29773   1.000
    O632    O    0.15910   0.94416   0.27774   1.000
    O633    O    0.14680   0.99343   0.29264   1.000
    O634    O    0.15910   0.44415   0.27774   1.000
    O635    O    0.14680   0.49343   0.29264   1.000
    O636    O    0.65910   0.44415   0.27774   1.000
    O637    O    0.64680   0.49343   0.29264   1.000
    O638    O    0.65910   0.94416   0.27774   1.000
    O639    O    0.64680   0.99343   0.29264   1.000
    O640    O    0.68969   0.90161   0.30615   1.000
    O641    O    0.68969   0.40160   0.30615   1.000
    O642    O    0.18969   0.90161   0.30615   1.000
    O643    O    0.18969   0.40160   0.30615   1.000
    O644    O    0.36894   0.27273   0.33923   1.000
    O645    O    0.86894   0.77274   0.33923   1.000
    O646    O    0.36894   0.77274   0.33923   1.000
    O647    O    0.86894   0.27273   0.33926   1.000
    O648    O    0.90624   0.46577   0.29599   1.000
    O649    O    0.89633   0.52447   0.31405   1.000
    O650    O    0.90624   0.96577   0.29597   1.000
    O651    O    0.89633   0.02447   0.31405   1.000
    O652    O    0.40622   0.46577   0.29599   1.000
    O653    O    0.39632   0.52447   0.31405   1.000
    O654    O    0.40623   0.96577   0.29599   1.000
    O655    O    0.39632   0.02446   0.31405   1.000
    O656    O    0.94314   0.92211   0.32873   1.000
    O657    O    0.44313   0.42210   0.32875   1.000
    O658    O    0.44314   0.92211   0.32875   1.000
    O659    O    0.94314   0.42210   0.32875   1.000
    O660    O    0.56058   0.73721   0.33888   1.000
    O661    O    0.06058   0.23720   0.33888   1.000
    O662    O    0.56058   0.23720   0.33888   1.000
    O663    O    0.06058   0.73721   0.33888   1.000
    O664    O    0.88346   0.07955   0.33348   1.000
    O665    O    0.86702   0.13093   0.34601   1.000
    O666    O    0.88347   0.57956   0.33348   1.000
    O667    O    0.86703   0.63094   0.34601   1.000
    O668    O    0.38346   0.07955   0.33349   1.000
    O669    O    0.36702   0.13093   0.34601   1.000
    O670    O    0.38345   0.57955   0.33349   1.000
    O671    O    0.36702   0.63094   0.34601   1.000
    O672    O    0.91451   0.03966   0.36318   1.000
    O673    O    0.41450   0.03966   0.36318   1.000
    O674    O    0.91451   0.53967   0.36318   1.000
    O675    O    0.41449   0.53966   0.36319   1.000
    O676    O    0.61703   0.65404   0.36909   1.000
    O677    O    0.61702   0.15403   0.36909   1.000
    O678    O    0.11702   0.65403   0.36909   1.000
    O679    O    0.11702   0.15403   0.36910   1.000
    O680    O    0.09812   0.70231   0.37885   1.000
    O681    O    0.07739   0.75777   0.39058   1.000
    O682    O    0.09812   0.20231   0.37885   1.000
    O683    O    0.07739   0.25776   0.39058   1.000
    O684    O    0.59813   0.70231   0.37885   1.000
    O685    O    0.57739   0.75777   0.39058   1.000
    O686    O    0.59812   0.20230   0.37885   1.000
    O687    O    0.57739   0.25776   0.39058   1.000
    O688    O    0.13345   0.66656   0.42049   1.000
    O689    O    0.63346   0.66656   0.42049   1.000
    O690    O    0.13345   0.16655   0.42049   1.000
    O691    O    0.63345   0.16655   0.42049   1.000
    O692    O    0.34663   0.78055   0.41061   1.000
    O693    O    0.34663   0.28054   0.41064   1.000
    O694    O    0.84663   0.78055   0.41064   1.000
    O695    O    0.84662   0.28054   0.41064   1.000
    O696    O    0.06031   0.30617   0.40161   1.000
    O697    O    0.06031   0.80618   0.40161   1.000
    O698    O    0.56031   0.30617   0.40161   1.000
    O699    O    0.56031   0.80618   0.40161   1.000
    O700    O    0.09088   0.77778   0.44417   1.000
    O701    O    0.09089   0.27777   0.44417   1.000
    O702    O    0.59089   0.27777   0.44417   1.000
    O703    O    0.59089   0.77778   0.44417   1.000
    O704    O    0.80686   0.82871   0.42206   1.000
    O705    O    0.30685   0.32870   0.42206   1.000
    O706    O    0.80685   0.32870   0.42206   1.000
    O707    O    0.30685   0.82871   0.42207   1.000
    O708    O    0.84378   0.29595   0.46573   1.000
    O709    O    0.34380   0.29595   0.46573   1.000
    O710    O    0.34380   0.79596   0.46573   1.000
    O711    O    0.84380   0.79596   0.46573   1.000
    O712    O    0.16449   0.63686   0.46029   1.000
    O713    O    0.14630   0.68600   0.47554   1.000
    O714    O    0.66450   0.63687   0.46038   1.000
    O715    O    0.64631   0.68600   0.47557   1.000
    O716    O    0.66449   0.13686   0.46039   1.000
    O717    O    0.64630   0.18599   0.47554   1.000
    O718    O    0.16449   0.13686   0.46039   1.000
    O719    O    0.14630   0.18599   0.47557   1.000
    O720    O    0.62447   0.74177   0.48753   1.000
    O721    O    0.60317   0.79267   0.49346   1.000
    O722    O    0.12447   0.24176   0.48753   1.000
    O723    O    0.10317   0.29266   0.49346   1.000
    O724    O    0.12446   0.74176   0.48750   1.000
    O725    O    0.10317   0.79267   0.49346   1.000
    O726    O    0.62446   0.24176   0.48750   1.000
    O727    O    0.60317   0.29266   0.49346   1.000
    O728    O    0.39684   0.70735   0.50655   1.000
    O729    O    0.89685   0.70735   0.50655   1.000
    O730    O    0.39684   0.20735   0.50655   1.000
    O731    O    0.89683   0.20734   0.50655   1.000
    O732    O    0.15620   0.70406   0.53424   1.000
    O733    O    0.65620   0.20405   0.53424   1.000
    O734    O    0.15621   0.20405   0.53427   1.000
    O735    O    0.65621   0.70406   0.53427   1.000
    O736    O    0.87555   0.75826   0.51247   1.000
    O737    O    0.85371   0.81402   0.52444   1.000
    O738    O    0.87553   0.25825   0.51248   1.000
    O739    O    0.85369   0.31401   0.52444   1.000
    O740    O    0.37554   0.75825   0.51248   1.000
    O741    O    0.35370   0.81402   0.52444   1.000
    O742    O    0.37555   0.25825   0.51248   1.000
    O743    O    0.35371   0.31401   0.52444   1.000
    O744    O    0.90913   0.72225   0.55580   1.000
    O745    O    0.40913   0.22224   0.55584   1.000
    O746    O    0.90912   0.22224   0.55581   1.000
    O747    O    0.40913   0.72225   0.55581   1.000
    O748    O    0.83553   0.86316   0.53961   1.000
    O749    O    0.83550   0.36314   0.53963   1.000
    O750    O    0.33551   0.86315   0.53963   1.000
    O751    O    0.33552   0.36315   0.53963   1.000
    O752    O    0.86656   0.83347   0.57952   1.000
    O753    O    0.86655   0.33345   0.57951   1.000
    O754    O    0.36655   0.83346   0.57951   1.000
    O755    O    0.36656   0.33346   0.57951   1.000
    O756    O    0.19314   0.17130   0.57794   1.000
    O757    O    0.15337   0.21946   0.58937   1.000
    O758    O    0.69314   0.67131   0.57794   1.000
    O759    O    0.65337   0.71947   0.58937   1.000
    O760    O    0.19314   0.67131   0.57794   1.000
    O761    O    0.15337   0.71947   0.58937   1.000
    O762    O    0.69314   0.17130   0.57794   1.000
    O763    O    0.65337   0.21946   0.58937   1.000
    O764    O    0.93971   0.69384   0.59837   1.000
    O765    O    0.92262   0.74226   0.60941   1.000
    O766    O    0.93971   0.19384   0.59837   1.000
    O767    O    0.92261   0.24225   0.60941   1.000
    O768    O    0.43971   0.69384   0.59837   1.000
    O769    O    0.42262   0.74226   0.60941   1.000
    O770    O    0.43970   0.19384   0.59840   1.000
    O771    O    0.42262   0.24225   0.60945   1.000
    O772    O    0.13106   0.22727   0.66075   1.000
    O773    O    0.63106   0.22727   0.66075   1.000
    O774    O    0.13106   0.72728   0.66075   1.000
    O775    O    0.63106   0.72728   0.66075   1.000
    O776    O    0.90188   0.29770   0.62116   1.000
    O777    O    0.88299   0.34598   0.63091   1.000
    O778    O    0.40188   0.79771   0.62116   1.000
    O779    O    0.38299   0.84599   0.63091   1.000
    O780    O    0.40188   0.29770   0.62116   1.000
    O781    O    0.38298   0.34598   0.63091   1.000
    O782    O    0.90189   0.79771   0.62116   1.000
    O783    O    0.88299   0.84599   0.63092   1.000
    O784    O    0.58551   0.96036   0.63648   1.000
    O785    O    0.08551   0.96036   0.63682   1.000
    O786    O    0.58551   0.46035   0.63682   1.000
    O787    O    0.08550   0.46035   0.63683   1.000
    O788    O    0.43942   0.26281   0.66114   1.000
    O789    O    0.43942   0.76282   0.66114   1.000
    O790    O    0.93942   0.26281   0.66114   1.000
    O791    O    0.93942   0.76282   0.66111   1.000
    O792    O    0.13298   0.36907   0.65399   1.000
    O793    O    0.13298   0.86908   0.65400   1.000
    O794    O    0.63299   0.36907   0.65400   1.000
    O795    O    0.63299   0.86908   0.65400   1.000
    O796    O    0.55686   0.57791   0.67126   1.000
    O797    O    0.05686   0.07790   0.67126   1.000
    O798    O    0.55686   0.07790   0.67122   1.000
    O799    O    0.05686   0.57791   0.67126   1.000
    O800    O    0.61655   0.92047   0.66652   1.000
    O801    O    0.60368   0.97555   0.68597   1.000
    O802    O    0.61655   0.42046   0.66652   1.000
    O803    O    0.60369   0.47554   0.68597   1.000
    O804    O    0.11654   0.42046   0.66652   1.000
    O805    O    0.10368   0.47554   0.68597   1.000
    O806    O    0.11655   0.92047   0.66652   1.000
    O807    O    0.10368   0.97555   0.68597   1.000
    O808    O    0.81032   0.59841   0.69386   1.000
    O809    O    0.81032   0.09840   0.69386   1.000
    O810    O    0.31031   0.59841   0.69386   1.000
    O811    O    0.31032   0.09840   0.69386   1.000
    O812    O    0.15187   0.87883   0.70229   1.000
    O813    O    0.65187   0.87884   0.70229   1.000
    O814    O    0.65188   0.37883   0.70225   1.000
    O815    O    0.15187   0.37883   0.70229   1.000
    O816    O    0.85322   0.00658   0.70736   1.000
    O817    O    0.35322   0.50658   0.70737   1.000
    O818    O    0.35321   0.00658   0.70738   1.000
    O819    O    0.85321   0.50658   0.70738   1.000
    O820    O    0.91650   0.77270   0.73938   1.000
    O821    O    0.41649   0.27269   0.73942   1.000
    O822    O    0.41649   0.77270   0.73938   1.000
    O823    O    0.91649   0.27270   0.73938   1.000
    O824    O    0.59377   0.03425   0.70399   1.000
    O825    O    0.59660   0.08933   0.71941   1.000
    O826    O    0.59377   0.53425   0.70403   1.000
    O827    O    0.59660   0.58934   0.71945   1.000
    O828    O    0.09377   0.53425   0.70403   1.000
    O829    O    0.09660   0.58934   0.71945   1.000
    O830    O    0.09377   0.03425   0.70403   1.000
    O831    O    0.09660   0.08933   0.71945   1.000
    O832    O    0.62551   0.98751   0.74174   1.000
    O833    O    0.62551   0.48750   0.74174   1.000
    O834    O    0.12550   0.98751   0.74174   1.000
    O835    O    0.12550   0.48750   0.74174   1.000
    O836    O    0.11890   0.66073   0.72730   1.000
    O837    O    0.16649   0.76060   0.72733   1.000
    O838    O    0.08350   0.72732   0.76061   1.000
    O839    O    0.61890   0.16072   0.72730   1.000
    O840    O    0.66648   0.26059   0.72733   1.000
    O841    O    0.58350   0.22731   0.76061   1.000
    O842    O    0.61890   0.66073   0.72730   1.000
    O843    O    0.66649   0.76060   0.72733   1.000
    O844    O    0.58350   0.72733   0.76061   1.000
    O845    O    0.11890   0.16072   0.72730   1.000
    O846    O    0.16649   0.26059   0.72733   1.000
    O847    O    0.08350   0.22732   0.76061   1.000
    O848    O    0.84091   0.55586   0.72227   1.000
    O849    O    0.82741   0.60946   0.74227   1.000
    O850    O    0.34092   0.55586   0.72227   1.000
    O851    O    0.32741   0.60946   0.74227   1.000
    O852    O    0.84092   0.05585   0.72227   1.000
    O853    O    0.82742   0.10945   0.74227   1.000
    O854    O    0.34090   0.05585   0.72228   1.000
    O855    O    0.32740   0.10945   0.74228   1.000
    O856    O    0.37449   0.01250   0.75829   1.000
    O857    O    0.37451   0.51251   0.75829   1.000
    O858    O    0.87451   0.01250   0.75829   1.000
    O859    O    0.87450   0.51251   0.75829   1.000
    O860    O    0.68942   0.33886   0.73715   1.000
    O861    O    0.67260   0.39056   0.75770   1.000
    O862    O    0.68942   0.83887   0.73719   1.000
    O863    O    0.67260   0.89056   0.75775   1.000
    O864    O    0.18942   0.33886   0.73719   1.000
    O865    O    0.17259   0.39056   0.75775   1.000
    O866    O    0.18942   0.83887   0.73719   1.000
    O867    O    0.17259   0.89056   0.75775   1.000
    O868    O    0.31058   0.16114   0.76283   1.000
    O869    O    0.33351   0.23942   0.77270   1.000
    O870    O    0.81058   0.66115   0.76283   1.000
    O871    O    0.83351   0.73943   0.77270   1.000
    O872    O    0.31058   0.66115   0.76283   1.000
    O873    O    0.33351   0.73943   0.77266   1.000
    O874    O    0.81058   0.16114   0.76283   1.000
    O875    O    0.83351   0.23942   0.77266   1.000
    O876    O    0.38109   0.33929   0.77274   1.000
    O877    O    0.40340   0.41068   0.78057   1.000
    O878    O    0.38110   0.83930   0.77270   1.000
    O879    O    0.40339   0.91068   0.78055   1.000
    O880    O    0.88109   0.33929   0.77270   1.000
    O881    O    0.90340   0.41067   0.78058   1.000
    O882    O    0.88109   0.83930   0.77274   1.000
    O883    O    0.90340   0.91069   0.78058   1.000
    O884    O    0.34812   0.12118   0.79774   1.000
    O885    O    0.84813   0.62119   0.79772   1.000
    O886    O    0.84814   0.12118   0.79773   1.000
    O887    O    0.34814   0.62119   0.79773   1.000
    O888    O    0.65910   0.94416   0.77775   1.000
    O889    O    0.64680   0.99343   0.79265   1.000
    O890    O    0.15910   0.44415   0.77775   1.000
    O891    O    0.14680   0.49343   0.79265   1.000
    O892    O    0.15909   0.94416   0.77775   1.000
    O893    O    0.14679   0.99343   0.79265   1.000
    O894    O    0.65910   0.44415   0.77775   1.000
    O895    O    0.64680   0.49343   0.79265   1.000
    O896    O    0.18969   0.90161   0.80615   1.000
    O897    O    0.18969   0.40160   0.80616   1.000
    O898    O    0.68969   0.40160   0.80616   1.000
    O899    O    0.68969   0.90161   0.80616   1.000
    O900    O    0.86893   0.27273   0.83923   1.000
    O901    O    0.36894   0.77274   0.83923   1.000
    O902    O    0.86893   0.77274   0.83923   1.000
    O903    O    0.36894   0.27274   0.83927   1.000
    O904    O    0.90623   0.46577   0.79600   1.000
    O905    O    0.89633   0.52447   0.81405   1.000
    O906    O    0.40625   0.46577   0.79600   1.000
    O907    O    0.39634   0.52448   0.81405   1.000
    O908    O    0.90624   0.96577   0.79600   1.000
    O909    O    0.89634   0.02447   0.81405   1.000
    O910    O    0.40622   0.96577   0.79598   1.000
    O911    O    0.39631   0.02446   0.81406   1.000
    O912    O    0.44313   0.92211   0.82874   1.000
    O913    O    0.44313   0.42210   0.82877   1.000
    O914    O    0.94313   0.42210   0.82877   1.000
    O915    O    0.94313   0.92211   0.82877   1.000
    O916    O    0.56058   0.23720   0.83888   1.000
    O917    O    0.06058   0.73721   0.83888   1.000
    O918    O    0.06057   0.23720   0.83888   1.000
    O919    O    0.56058   0.73721   0.83888   1.000
    O920    O    0.88346   0.57956   0.83348   1.000
    O921    O    0.86703   0.63094   0.84601   1.000
    O922    O    0.38347   0.57956   0.83349   1.000
    O923    O    0.36702   0.63094   0.84602   1.000
    O924    O    0.88347   0.07955   0.83349   1.000
    O925    O    0.86702   0.13094   0.84602   1.000
    O926    O    0.38345   0.07955   0.83351   1.000
    O927    O    0.36701   0.13093   0.84603   1.000
    O928    O    0.41452   0.53967   0.86320   1.000
    O929    O    0.91451   0.03966   0.86320   1.000
    O930    O    0.91451   0.53967   0.86320   1.000
    O931    O    0.41448   0.03966   0.86321   1.000
    O932    O    0.11702   0.65404   0.86911   1.000
    O933    O    0.61702   0.65404   0.86911   1.000
    O934    O    0.11701   0.15403   0.86911   1.000
    O935    O    0.61702   0.15403   0.86911   1.000
    O936    O    0.09811   0.20230   0.87886   1.000
    O937    O    0.07738   0.25776   0.89058   1.000
    O938    O    0.09813   0.70232   0.87886   1.000
    O939    O    0.07739   0.75777   0.89058   1.000
    O940    O    0.59813   0.20231   0.87886   1.000
    O941    O    0.57739   0.25776   0.89058   1.000
    O942    O    0.59812   0.70231   0.87886   1.000
    O943    O    0.57739   0.75777   0.89058   1.000
    O944    O    0.13346   0.66656   0.92050   1.000
    O945    O    0.63345   0.66656   0.92050   1.000
    O946    O    0.13344   0.16655   0.92050   1.000
    O947    O    0.63346   0.16655   0.92050   1.000
    O948    O    0.84662   0.78055   0.91062   1.000
    O949    O    0.34663   0.78055   0.91065   1.000
    O950    O    0.84663   0.28055   0.91065   1.000
    O951    O    0.34662   0.28054   0.91066   1.000
    O952    O    0.56030   0.30617   0.90163   1.000
    O953    O    0.56031   0.80618   0.90163   1.000
    O954    O    0.06030   0.80618   0.90163   1.000
    O955    O    0.06030   0.30617   0.90163   1.000
    O956    O    0.59089   0.77778   0.94418   1.000
    O957    O    0.59089   0.27777   0.94418   1.000
    O958    O    0.09089   0.77778   0.94418   1.000
    O959    O    0.09088   0.27777   0.94418   1.000
    O960    O    0.80685   0.32871   0.92207   1.000
    O961    O    0.80685   0.82871   0.92207   1.000
    O962    O    0.30684   0.32870   0.92208   1.000
    O963    O    0.30685   0.82871   0.92208   1.000
    O964    O    0.66449   0.63687   0.96040   1.000
    O965    O    0.64630   0.68600   0.97558   1.000
    O966    O    0.66450   0.13686   0.96040   1.000
    O967    O    0.64631   0.18600   0.97558   1.000
    O968    O    0.16450   0.63687   0.96040   1.000
    O969    O    0.14631   0.68601   0.97558   1.000
    O970    O    0.16448   0.13686   0.96040   1.000
    O971    O    0.14629   0.18599   0.97554   1.000
    O972    O    0.12446   0.24176   0.98750   1.000
    O973    O    0.12447   0.74177   0.98754   1.000
    O974    O    0.62447   0.24176   0.98754   1.000
    O975    O    0.62447   0.74177   0.98754   1.000
    O976    O    0.54149   0.23542   0.20212   1.000
    O977    O    0.54147   0.23541   0.70216   1.000
    O978    O    0.54149   0.73542   0.20212   1.000
    O979    O    0.54148   0.73543   0.70216   1.000
    O980    O    0.04148   0.23541   0.20212   1.000
    O981    O    0.04148   0.23542   0.70216   1.000
    O982    O    0.04149   0.73542   0.20215   1.000
    O983    O    0.04148   0.73542   0.70213   1.000
    O984    O    0.20850   0.20214   0.23543   1.000
    O985    O    0.20850   0.20214   0.73544   1.000
    O986    O    0.20850   0.70215   0.23543   1.000
    O987    O    0.20849   0.70215   0.73544   1.000
    O988    O    0.70850   0.20214   0.23542   1.000
    O989    O    0.70849   0.20214   0.73544   1.000
    O990    O    0.70850   0.70215   0.23543   1.000
    O991    O    0.70850   0.70215   0.73544   1.000
    O992    O    0.95852   0.26459   0.29785   1.000
    O993    O    0.95852   0.26459   0.79783   1.000
    O994    O    0.95853   0.76460   0.29783   1.000
    O995    O    0.95852   0.76460   0.79786   1.000
    O996    O    0.45853   0.26459   0.29783   1.000
    O997    O    0.45851   0.26459   0.79786   1.000
    O998    O    0.45853   0.76460   0.29785   1.000
    O999    O    0.45852   0.76460   0.79783   1.000
    O1000   O    0.29151   0.29786   0.26454   1.000
    O1001   O    0.29150   0.29787   0.76458   1.000
    O1002   O    0.29151   0.79787   0.26458   1.000
    O1003   O    0.29150   0.79787   0.76455   1.000
    O1004   O    0.79151   0.29787   0.26458   1.000
    O1005   O    0.79150   0.29786   0.76455   1.000
    O1006   O    0.79151   0.79788   0.26454   1.000
    O1007   O    0.79150   0.79788   0.76458   1.000
loop_
    _geom_bond_atom_site_label_1
    _geom_bond_atom_site_label_2
    _geom_bond_distance
    _geom_bond_site_symmetry_2
    _ccdc_geom_bond_type
    C148   O464      0.69887      .   S
    C180   O464      0.69887      .   S
    C148   O465      0.70088      .   S
    C188   O465      0.70088      .   S
    C148   O466      0.75697  1_554   S
    C173   O466      0.75697      .   S
    C146   O467      0.69891      .   S
    C178   O467      0.69891      .   S
    C146   O468      0.70088      .   S
    C186   O468      0.70088      .   S
    C146   O469      0.75698  1_554   S
    C171   O469      0.75698      .   S
    C150   O470      0.69891      .   S
    C182   O470      0.69891      .   S
    C150   O471      0.70089      .   S
    C190   O471      0.70089      .   S
    C150   O472      0.75697  1_554   S
    C175   O472      0.75697      .   S
    C144   O473      0.69890      .   S
    C176   O473      0.69890      .   S
    C144   O474      0.70087      .   S
    C184   O474      0.70087      .   S
    C144   O475      0.75689  1_554   S
    C169   O475      0.75689      .   S
    C96    O476      0.54334  1_554   S
    C273   O476      0.54334      .   S
    C98    O477      0.54335  1_554   S
    C275   O477      0.54335      .   S
    C100   O478      0.54335  1_554   S
    C277   O478      0.54335      .   S
    C102   O479      0.54334  1_554   S
    C279   O479      0.54334      .   S
    C180   O480      0.69052      .   S
    C156   O480      0.69052      .   S
    C180   O481      0.54330      .   S
    C37    O481      0.54330  1_556   S
    C182   O482      0.69100      .   S
    C158   O482      0.69100      .   S
    C182   O483      0.54337      .   S
    C39    O483      0.54337  1_556   S
    C178   O484      0.69043      .   S
    C154   O484      0.69043      .   S
    C178   O485      0.54335      .   S
    C35    O485      0.54335  1_556   S
    C176   O486      0.69103      .   S
    C152   O486      0.69103      .   S
    C176   O487      0.54336      .   S
    C33    O487      0.54336  1_556   S
    C46    O488      0.54465      .   S
    C190   O488      0.54465      .   S
    C44    O489      0.54466      .   S
    C188   O489      0.54466      .   S
    C42    O490      0.54466      .   S
    C186   O490      0.54466      .   S
    C40    O491      0.54463      .   S
    C184   O491      0.54463      .   S
    C186   O492      0.69120      .   S
    C162   O492      0.69120      .   S
    C184   O493      0.69122      .   S
    C160   O493      0.69122      .   S
    C188   O494      0.69119      .   S
    C164   O494      0.69119      .   S
    C190   O495      0.69119      .   S
    C166   O495      0.69119      .   S
    C270   O496      0.62231      .   S
    C422   O496      0.62231      .   S
    C270   O497      0.64896      .   S
    C438   O497      0.64896      .   S
    C270   O498      0.75697      .   S
    C247   O498      0.75697  1_556   S
    C268   O499      0.62232      .   S
    C420   O499      0.62232      .   S
    C268   O500      0.64895      .   S
    C436   O500      0.64895      .   S
    C268   O501      0.75697      .   S
    C245   O501      0.75697  1_556   S
    C266   O502      0.62232      .   S
    C418   O502      0.62232      .   S
    C266   O503      0.64896      .   S
    C434   O503      0.64896      .   S
    C266   O504      0.75697      .   S
    C243   O504      0.75697  1_556   S
    C264   O505      0.62232      .   S
    C416   O505      0.62232      .   S
    C264   O506      0.64895      .   S
    C432   O506      0.64895      .   S
    C264   O507      0.75766      .   S
    C241   O507      0.75766  1_556   S
    C156   O508      0.54577      .   S
    C20    O508      0.54577      .   S
    C156   O509      0.68063      .   S
    C340   O509      0.68063      .   S
    C154   O510      0.54577      .   S
    C18    O510      0.54577      .   S
    C154   O511      0.68063      .   S
    C338   O511      0.68063      .   S
    C158   O512      0.54557      .   S
    C22    O512      0.54557      .   S
    C158   O513      0.68023      .   S
    C342   O513      0.68023      .   S
    C152   O514      0.54556      .   S
    C16    O514      0.54556      .   S
    C152   O515      0.68023      .   S
    C336   O515      0.68023      .   S
    C438   O516      1.11950      .   S
    C14    O516      1.11950      .   S
    C436   O517      1.11950      .   S
    C12    O517      1.11950      .   S
    C434   O518      1.11950      .   S
    C10    O518      1.11950      .   S
    C432   O519      1.11950      .   S
    C8     O519      1.11950      .   S
    C166   O520      0.68286      .   S
    C342   O520      0.68286      .   S
    C166   O521      0.54465      .   S
    C30    O521      0.54465      .   S
    C164   O522      0.68286      .   S
    C340   O522      0.68286      .   S
    C164   O523      0.54463      .   S
    C28    O523      0.54463      .   S
    C162   O524      0.68287      .   S
    C338   O524      0.68287      .   S
    C162   O525      0.54463      .   S
    C26    O525      0.54463      .   S
    C160   O526      0.68286      .   S
    C336   O526      0.68286      .   S
    C160   O527      0.54465      .   S
    C24    O527      0.54465      .   S
    C136   O528      0.54465      .   S
    C328   O528      0.54465      .   S
    C142   O529      0.54467      .   S
    C334   O529      0.54467      .   S
    C140   O530      0.54466      .   S
    C332   O530      0.54466      .   S
    C138   O531      0.54466      .   S
    C330   O531      0.54466      .   S
    C342   O532      0.66620      .   S
    C382   O532      0.66620      .   S
    C340   O533      0.66569      .   S
    C380   O533      0.66569      .   S
    C338   O534      0.66569      .   S
    C378   O534      0.66569      .   S
    C336   O535      0.66571      .   S
    C376   O535      0.66571      .   S
    C126   O536      0.54459      .   S
    C310   O536      0.54459      .   S
    C120   O537      0.54462      .   S
    C304   O537      0.54462      .   S
    C122   O538      0.54462      .   S
    C306   O538      0.54462      .   S
    C124   O539      0.54460      .   S
    C308   O539      0.54460      .   S
    C444   O540      0.62233      .   S
    C316   O540      0.62233      .   S
    C446   O541      0.62230      .   S
    C318   O541      0.62230      .   S
    C442   O542      0.62230      .   S
    C314   O542      0.62230      .   S
    C440   O543      0.62234      .   S
    C312   O543      0.62234      .   S
    C332   O544      0.69123      .   S
    C308   O544      0.69123      .   S
    C332   O545      0.70092      .   S
    C292   O545      0.70092      .   S
    C334   O546      0.69122      .   S
    C310   O546      0.69122      .   S
    C334   O547      0.70090      .   S
    C294   O547      0.70090      .   S
    C330   O548      0.69122      .   S
    C306   O548      0.69122      .   S
    C330   O549      0.70040      .   S
    C290   O549      0.70040      .   S
    C328   O550      0.69122      .   S
    C304   O550      0.69122      .   S
    C328   O551      0.70040      .   S
    C288   O551      0.70040      .   S
    C54    O552      0.54558      .   S
    C206   O552      0.54558      .   S
    C52    O553      0.54557      .   S
    C204   O553      0.54557      .   S
    C50    O554      0.54556      .   S
    C202   O554      0.54556      .   S
    C48    O555      0.54557      .   S
    C200   O555      0.54557      .   S
    C304   O556      0.68282      .   S
    C360   O556      0.68282      .   S
    C306   O557      0.68282      .   S
    C362   O557      0.68282      .   S
    C308   O558      0.68218      .   S
    C364   O558      0.68218      .   S
    C310   O559      0.68290      .   S
    C366   O559      0.68290      .   S
    C68    O560      0.54354      .   S
    C230   O560      0.54354      .   S
    C70    O561      0.54342  1_565   S
    C228   O561      0.54342      .   S
    C66    O562      0.54342  1_565   S
    C224   O562      0.54342      .   S
    C64    O563      0.54346      .   S
    C226   O563      0.54346      .   S
    C380   O564      1.20398      .   S
    C4     O564      1.20398      .   S
    C376   O565      1.20342      .   S
    C0     O565      1.20342      .   S
    C378   O566      1.20395      .   S
    C2     O566      1.20395      .   S
    C382   O567      1.20303      .   S
    C6     O567      1.20303      .   S
    C318   O568      0.75713      .   S
    C292   O568      0.75713      .   S
    C318   O569      0.64896      .   S
    C462   O569      0.64896      .   S
    C316   O570      0.75694      .   S
    C294   O570      0.75694  1_565   S
    C316   O571      0.64893      .   S
    C460   O571      0.64893      .   S
    C314   O572      0.75701      .   S
    C288   O572      0.75701      .   S
    C314   O573      0.64896      .   S
    C458   O573      0.64896      .   S
    C312   O574      0.75683      .   S
    C290   O574      0.75683  1_565   S
    C312   O575      0.64893      .   S
    C456   O575      0.64893      .   S
    C290   O576      0.69954      .   S
    C322   O576      0.69954      .   S
    C288   O577      0.69953      .   S
    C320   O577      0.69953      .   S
    C294   O578      0.69894      .   S
    C326   O578      0.69894      .   S
    C292   O579      0.69892      .   S
    C324   O579      0.69892      .   S
    C14    O580      1.11941      .   S
    C462   O580      1.11941      .   S
    C14    O581      1.20345      .   S
    C454   O581      1.20345      .   S
    C14    O582      1.20344      .   S
    C430   O582      1.20344      .   S
    C12    O583      1.11941      .   S
    C460   O583      1.11941      .   S
    C12    O584      1.20343      .   S
    C452   O584      1.20343      .   S
    C12    O585      1.20344      .   S
    C428   O585      1.20344      .   S
    C8     O586      1.11941      .   S
    C456   O586      1.11941      .   S
    C8     O587      1.20340      .   S
    C448   O587      1.20340      .   S
    C8     O588      1.20346      .   S
    C424   O588      1.20346      .   S
    C10    O589      1.11941      .   S
    C458   O589      1.11941      .   S
    C10    O590      1.20339      .   S
    C450   O590      1.20339      .   S
    C10    O591      1.20343      .   S
    C426   O591      1.20343      .   S
    C206   O592      0.69100      .   S
    C230   O592      0.69100      .   S
    C206   O593      0.68028      .   S
    C350   O593      0.68028      .   S
    C204   O594      0.69101      .   S
    C228   O594      0.69101      .   S
    C204   O595      0.68028      .   S
    C348   O595      0.68028      .   S
    C202   O596      0.69100      .   S
    C226   O596      0.69100      .   S
    C202   O597      0.68028      .   S
    C346   O597      0.68028      .   S
    C200   O598      0.69099      .   S
    C224   O598      0.69099      .   S
    C200   O599      0.68028      .   S
    C344   O599      0.68028      .   S
    C224   O600      0.69889      .   S
    C192   O600      0.69889      .   S
    C230   O601      0.69889      .   S
    C198   O601      0.69889      .   S
    C228   O602      0.69888      .   S
    C196   O602      0.69888      .   S
    C226   O603      0.69889      .   S
    C194   O603      0.69889      .   S
    C364   O604      0.66630      .   S
    C452   O604      0.66630      .   S
    C364   O605      0.68083      .   S
    C300   O605      0.68083      .   S
    C362   O606      0.66621      .   S
    C450   O606      0.66621      .   S
    C362   O607      0.68028      .   S
    C298   O607      0.68028      .   S
    C360   O608      0.66621      .   S
    C448   O608      0.66621      .   S
    C360   O609      0.68027      .   S
    C296   O609      0.68027      .   S
    C366   O610      0.66620      .   S
    C454   O610      0.66620      .   S
    C366   O611      0.68020      .   S
    C302   O611      0.68020      .   S
    C408   O612      1.11951      .   S
    C0     O612      1.11951      .   S
    C408   O613      0.64955      .   S
    C216   O613      0.64955      .   S
    C404   O614      0.66622      .   S
    C348   O614      0.66622      .   S
    C404   O615      1.20343      .   S
    C4     O615      1.20343      .   S
    C406   O616      0.66621      .   S
    C350   O616      0.66621      .   S
    C406   O617      1.20329      .   S
    C6     O617      1.20329      .   S
    C400   O618      0.66621      .   S
    C344   O618      0.66621      .   S
    C400   O619      1.20326      .   S
    C0     O619      1.20326      .   S
    C402   O620      0.66620      .   S
    C346   O620      0.66620      .   S
    C402   O621      1.20342      .   S
    C2     O621      1.20342      .   S
    C410   O622      1.11942      .   S
    C2     O622      1.11942      .   S
    C410   O623      0.64895      .   S
    C218   O623      0.64895      .   S
    C414   O624      1.11927      .   S
    C6     O624      1.11927      .   S
    C414   O625      0.64869      .   S
    C222   O625      0.64869      .   S
    C412   O626      1.11942      .   S
    C4     O626      1.11942      .   S
    C412   O627      0.64895      .   S
    C220   O627      0.64895      .   S
    C350   O628      0.68282      .   S
    C214   O628      0.68282      .   S
    C344   O629      0.68291      .   S
    C208   O629      0.68291      .   S
    C348   O630      0.68282      .   S
    C212   O630      0.68282      .   S
    C346   O631      0.68291      .   S
    C210   O631      0.68291      .   S
    C322   O632      0.69099      .   S
    C298   O632      0.69099      .   S
    C322   O633      0.54333      .   S
    C128   O633      0.54333  1_545   S
    C320   O634      0.69099      .   S
    C296   O634      0.69099      .   S
    C320   O635      0.54346      .   S
    C130   O635      0.54346      .   S
    C324   O636      0.69099      .   S
    C300   O636      0.69099      .   S
    C324   O637      0.54346      .   S
    C134   O637      0.54346      .   S
    C326   O638      0.69099      .   S
    C302   O638      0.69099      .   S
    C326   O639      0.54332      .   S
    C132   O639      0.54332  1_545   S
    C302   O640      0.54560      .   S
    C118   O640      0.54560      .   S
    C300   O641      0.54559      .   S
    C116   O641      0.54559      .   S
    C298   O642      0.54558      .   S
    C114   O642      0.54558      .   S
    C296   O643      0.54558      .   S
    C112   O643      0.54558      .   S
    C0     O644      1.12001      .   S
    C384   O644      1.12001      .   S
    C6     O645      1.12001      .   S
    C390   O645      1.12001      .   S
    C2     O646      1.11882      .   S
    C386   O646      1.11882      .   S
    C4     O647      1.11949      .   S
    C388   O647      1.11949      .   S
    C198   O648      0.75713      .   S
    C220   O648      0.75713      .   S
    C198   O649      0.70086      .   S
    C238   O649      0.70086      .   S
    C196   O650      0.75689  1_545   S
    C222   O650      0.75689      .   S
    C196   O651      0.70087      .   S
    C236   O651      0.70087      .   S
    C194   O652      0.75713      .   S
    C216   O652      0.75713      .   S
    C194   O653      0.70093      .   S
    C234   O653      0.70093      .   S
    C192   O654      0.75694  1_545   S
    C218   O654      0.75694      .   S
    C192   O655      0.70087      .   S
    C232   O655      0.70087      .   S
    C222   O656      0.62260      .   S
    C398   O656      0.62260      .   S
    C216   O657      0.62236      .   S
    C392   O657      0.62236      .   S
    C218   O658      0.62230      .   S
    C394   O658      0.62230      .   S
    C220   O659      0.62228      .   S
    C396   O659      0.62228      .   S
    C430   O660      0.66627      .   S
    C358   O660      0.66627      .   S
    C424   O661      0.66629      .   S
    C352   O661      0.66629      .   S
    C428   O662      0.66625      .   S
    C356   O662      0.66625      .   S
    C426   O663      0.66624      .   S
    C354   O663      0.66624      .   S
    C212   O664      0.69122      .   S
    C236   O664      0.69122      .   S
    C212   O665      0.54462      .   S
    C60    O665      0.54462      .   S
    C214   O666      0.69122      .   S
    C238   O666      0.69122      .   S
    C214   O667      0.54461      .   S
    C62    O667      0.54461      .   S
    C208   O668      0.69120      .   S
    C232   O668      0.69120      .   S
    C208   O669      0.54455      .   S
    C56    O669      0.54455      .   S
    C210   O670      0.69121      .   S
    C234   O670      0.69121      .   S
    C210   O671      0.54455      .   S
    C58    O671      0.54455      .   S
    C236   O672      0.54465      .   S
    C76    O672      0.54465      .   S
    C232   O673      0.54446      .   S
    C72    O673      0.54446      .   S
    C238   O674      0.54465      .   S
    C78    O674      0.54465      .   S
    C234   O675      0.54465      .   S
    C74    O675      0.54465      .   S
    C94    O676      0.54462      .   S
    C262   O676      0.54462      .   S
    C92    O677      0.54463      .   S
    C260   O677      0.54463      .   S
    C90    O678      0.54461      .   S
    C258   O678      0.54461      .   S
    C88    O679      0.54456      .   S
    C256   O679      0.54456      .   S
    C354   O680      0.68286      .   S
    C258   O680      0.68286      .   S
    C354   O681      0.68022      .   S
    C250   O681      0.68022      .   S
    C352   O682      0.68284      .   S
    C256   O682      0.68284      .   S
    C352   O683      0.68023      .   S
    C248   O683      0.68023      .   S
    C358   O684      0.68285      .   S
    C262   O684      0.68285      .   S
    C358   O685      0.68023      .   S
    C254   O685      0.68023      .   S
    C356   O686      0.68284      .   S
    C260   O686      0.68284      .   S
    C356   O687      0.68022      .   S
    C252   O687      0.68022      .   S
    C258   O688      0.69121      .   S
    C282   O688      0.69121      .   S
    C262   O689      0.69120      .   S
    C286   O689      0.69120      .   S
    C256   O690      0.69120      .   S
    C280   O690      0.69120      .   S
    C260   O691      0.69121      .   S
    C284   O691      0.69121      .   S
    C386   O692      0.64933      .   S
    C170   O692      0.64933      .   S
    C384   O693      0.64893      .   S
    C168   O693      0.64893      .   S
    C390   O694      0.64892      .   S
    C174   O694      0.64892      .   S
    C388   O695      0.64874      .   S
    C172   O695      0.64874      .   S
    C80    O696      0.54556      .   S
    C248   O696      0.54556      .   S
    C82    O697      0.54555      .   S
    C250   O697      0.54555      .   S
    C84    O698      0.54556      .   S
    C252   O698      0.54556      .   S
    C86    O699      0.54555      .   S
    C254   O699      0.54555      .   S
    C250   O700      0.69103      .   S
    C274   O700      0.69103      .   S
    C248   O701      0.69101      .   S
    C272   O701      0.69101      .   S
    C252   O702      0.69102      .   S
    C276   O702      0.69102      .   S
    C254   O703      0.69102      .   S
    C278   O703      0.69102      .   S
    C374   O704      0.62237      .   S
    C174   O704      0.62237      .   S
    C368   O705      0.62237      .   S
    C168   O705      0.62237      .   S
    C372   O706      0.62227      .   S
    C172   O706      0.62227      .   S
    C370   O707      0.62232      .   S
    C170   O707      0.62232      .   S
    C172   O708      0.75737      .   S
    C149   O708      0.75737      .   S
    C168   O709      0.75715      .   S
    C145   O709      0.75715      .   S
    C170   O710      0.75716      .   S
    C147   O710      0.75716      .   S
    C174   O711      0.75715      .   S
    C151   O711      0.75715      .   S
    C282   O712      0.54411      .   S
    C106   O712      0.54411      .   S
    C282   O713      0.70043      .   S
    C242   O713      0.70043      .   S
    C286   O714      0.54464      .   S
    C110   O714      0.54464      .   S
    C286   O715      0.70085      .   S
    C246   O715      0.70085      .   S
    C284   O716      0.54466      .   S
    C108   O716      0.54466      .   S
    C284   O717      0.70044      .   S
    C244   O717      0.70044      .   S
    C280   O718      0.54465      .   S
    C104   O718      0.54465      .   S
    C280   O719      0.70088      .   S
    C240   O719      0.70088      .   S
    C278   O720      0.69888      .   S
    C246   O720      0.69888      .   S
    C278   O721      0.54351      .   S
    C103   O721      0.54351      .   S
    C272   O722      0.69888      .   S
    C240   O722      0.69888      .   S
    C272   O723      0.54352      .   S
    C97    O723      0.54352      .   S
    C274   O724      0.69869      .   S
    C242   O724      0.69869      .   S
    C274   O725      0.54350      .   S
    C99    O725      0.54350      .   S
    C276   O726      0.69870      .   S
    C244   O726      0.69870      .   S
    C276   O727      0.54351      .   S
    C101   O727      0.54351      .   S
    C34    O728      0.54351      .   S
    C179   O728      0.54351      .   S
    C38    O729      0.54339      .   S
    C183   O729      0.54339      .   S
    C32    O730      0.54352      .   S
    C177   O730      0.54352      .   S
    C36    O731      0.54351      .   S
    C181   O731      0.54351      .   S
    C242   O732      0.75775      .   S
    C267   O732      0.75775      .   S
    C244   O733      0.75775      .   S
    C269   O733      0.75775      .   S
    C240   O734      0.75714      .   S
    C265   O734      0.75714      .   S
    C246   O735      0.75715      .   S
    C271   O735      0.75715      .   S
    C151   O736      0.69886      .   S
    C183   O736      0.69886      .   S
    C151   O737      0.70088      .   S
    C191   O737      0.70088      .   S
    C149   O738      0.69891      .   S
    C181   O738      0.69891      .   S
    C149   O739      0.70086      .   S
    C189   O739      0.70086      .   S
    C147   O740      0.69890      .   S
    C179   O740      0.69890      .   S
    C147   O741      0.70087      .   S
    C187   O741      0.70087      .   S
    C145   O742      0.69891      .   S
    C177   O742      0.69891      .   S
    C145   O743      0.70087      .   S
    C185   O743      0.70087      .   S
    C183   O744      0.69052      .   S
    C159   O744      0.69052      .   S
    C177   O745      0.69101      .   S
    C153   O745      0.69101      .   S
    C181   O746      0.69035      .   S
    C157   O746      0.69035      .   S
    C179   O747      0.69034      .   S
    C155   O747      0.69034      .   S
    C47    O748      0.54468      .   S
    C191   O748      0.54468      .   S
    C45    O749      0.54463      .   S
    C189   O749      0.54463      .   S
    C43    O750      0.54463      .   S
    C187   O750      0.54463      .   S
    C41    O751      0.54463      .   S
    C185   O751      0.54463      .   S
    C191   O752      0.69119      .   S
    C167   O752      0.69119      .   S
    C189   O753      0.69112      .   S
    C165   O753      0.69112      .   S
    C187   O754      0.69112      .   S
    C163   O754      0.69112      .   S
    C185   O755      0.69110      .   S
    C161   O755      0.69110      .   S
    C265   O756      0.62231      .   S
    C417   O756      0.62231      .   S
    C265   O757      0.64894      .   S
    C433   O757      0.64894      .   S
    C271   O758      0.62231      .   S
    C423   O758      0.62231      .   S
    C271   O759      0.64895      .   S
    C439   O759      0.64895      .   S
    C267   O760      0.62231      .   S
    C419   O760      0.62231      .   S
    C267   O761      0.64895      .   S
    C435   O761      0.64895      .   S
    C269   O762      0.62231      .   S
    C421   O762      0.62231      .   S
    C269   O763      0.64895      .   S
    C437   O763      0.64895      .   S
    C159   O764      0.54582      .   S
    C23    O764      0.54582      .   S
    C159   O765      0.68069      .   S
    C343   O765      0.68069      .   S
    C157   O766      0.54581      .   S
    C21    O766      0.54581      .   S
    C157   O767      0.68069      .   S
    C341   O767      0.68069      .   S
    C155   O768      0.54581      .   S
    C19    O768      0.54581      .   S
    C155   O769      0.68069      .   S
    C339   O769      0.68069      .   S
    C153   O770      0.54555      .   S
    C17    O770      0.54555      .   S
    C153   O771      0.68023      .   S
    C337   O771      0.68023      .   S
    C433   O772      1.11951      .   S
    C9     O772      1.11951      .   S
    C437   O773      1.11951      .   S
    C13    O773      1.11951      .   S
    C435   O774      1.11951      .   S
    C11    O774      1.11951      .   S
    C439   O775      1.11950      .   S
    C15    O775      1.11950      .   S
    C165   O776      0.68289      .   S
    C341   O776      0.68289      .   S
    C165   O777      0.54472      .   S
    C29    O777      0.54472      .   S
    C163   O778      0.68289      .   S
    C339   O778      0.68289      .   S
    C163   O779      0.54471      .   S
    C27    O779      0.54471      .   S
    C161   O780      0.68289      .   S
    C337   O780      0.68289      .   S
    C161   O781      0.54470      .   S
    C25    O781      0.54470      .   S
    C167   O782      0.68286      .   S
    C343   O782      0.68286      .   S
    C167   O783      0.54464      .   S
    C31    O783      0.54464      .   S
    C143   O784      0.55095      .   S
    C335   O784      0.55095      .   S
    C139   O785      0.54466      .   S
    C331   O785      0.54466      .   S
    C141   O786      0.54465      .   S
    C333   O786      0.54465      .   S
    C137   O787      0.54457      .   S
    C329   O787      0.54457      .   S
    C337   O788      0.66625      .   S
    C377   O788      0.66625      .   S
    C339   O789      0.66625      .   S
    C379   O789      0.66625      .   S
    C341   O790      0.66626      .   S
    C381   O790      0.66626      .   S
    C343   O791      0.66561      .   S
    C383   O791      0.66561      .   S
    C121   O792      0.54468      .   S
    C305   O792      0.54468      .   S
    C123   O793      0.54460      .   S
    C307   O793      0.54460      .   S
    C125   O794      0.54461      .   S
    C309   O794      0.54461      .   S
    C127   O795      0.54461      .   S
    C311   O795      0.54461      .   S
    C447   O796      0.62231      .   S
    C319   O796      0.62231      .   S
    C441   O797      0.62233      .   S
    C313   O797      0.62233      .   S
    C445   O798      0.62163      .   S
    C317   O798      0.62163      .   S
    C443   O799      0.62234      .   S
    C315   O799      0.62234      .   S
    C335   O800      0.69122      .   S
    C311   O800      0.69122      .   S
    C335   O801      0.70093      .   S
    C295   O801      0.70093      .   S
    C333   O802      0.69123      .   S
    C309   O802      0.69123      .   S
    C333   O803      0.70093      .   S
    C293   O803      0.70093      .   S
    C329   O804      0.69122      .   S
    C305   O804      0.69122      .   S
    C329   O805      0.70092      .   S
    C289   O805      0.70092      .   S
    C331   O806      0.69122      .   S
    C307   O806      0.69122      .   S
    C331   O807      0.70092      .   S
    C291   O807      0.70092      .   S
    C55    O808      0.54557      .   S
    C207   O808      0.54557      .   S
    C53    O809      0.54559      .   S
    C205   O809      0.54559      .   S
    C51    O810      0.54560      .   S
    C203   O810      0.54560      .   S
    C49    O811      0.54565      .   S
    C201   O811      0.54565      .   S
    C307   O812      0.68291      .   S
    C363   O812      0.68291      .   S
    C311   O813      0.68291      .   S
    C367   O813      0.68291      .   S
    C309   O814      0.68209      .   S
    C365   O814      0.68209      .   S
    C305   O815      0.68292      .   S
    C361   O815      0.68292      .   S
    C71    O816      0.54357  1_565   S
    C229   O816      0.54357      .   S
    C65    O817      0.54356      .   S
    C227   O817      0.54356      .   S
    C67    O818      0.54334  1_565   S
    C225   O818      0.54334      .   S
    C69    O819      0.54347      .   S
    C231   O819      0.54347      .   S
    C383   O820      1.20407      .   S
    C7     O820      1.20407      .   S
    C377   O821      1.20344      .   S
    C1     O821      1.20344      .   S
    C379   O822      1.20281      .   S
    C3     O822      1.20281      .   S
    C381   O823      1.20281      .   S
    C5     O823      1.20281      .   S
    C317   O824      0.75710      .   S
    C295   O824      0.75710  1_565   S
    C317   O825      0.64953      .   S
    C461   O825      0.64953      .   S
    C319   O826      0.75714      .   S
    C293   O826      0.75714      .   S
    C319   O827      0.64898      .   S
    C463   O827      0.64898      .   S
    C315   O828      0.75713      .   S
    C289   O828      0.75713      .   S
    C315   O829      0.64894      .   S
    C459   O829      0.64894      .   S
    C313   O830      0.75694      .   S
    C291   O830      0.75694  1_565   S
    C313   O831      0.64895      .   S
    C457   O831      0.64895      .   S
    C295   O832      0.69891      .   S
    C327   O832      0.69891      .   S
    C293   O833      0.69890      .   S
    C325   O833      0.69890      .   S
    C291   O834      0.69892      .   S
    C323   O834      0.69892      .   S
    C289   O835      0.69892      .   S
    C321   O835      0.69892      .   S
    C11    O836      1.11940      .   S
    C459   O836      1.11940      .   S
    C11    O837      1.20344      .   S
    C451   O837      1.20344      .   S
    C11    O838      1.20344      .   S
    C427   O838      1.20344      .   S
    C13    O839      1.11940      .   S
    C461   O839      1.11940      .   S
    C13    O840      1.20339      .   S
    C453   O840      1.20339      .   S
    C13    O841      1.20343      .   S
    C429   O841      1.20343      .   S
    C15    O842      1.11941      .   S
    C463   O842      1.11941      .   S
    C15    O843      1.20338      .   S
    C455   O843      1.20338      .   S
    C15    O844      1.20345      .   S
    C431   O844      1.20345      .   S
    C9     O845      1.11942      .   S
    C457   O845      1.11942      .   S
    C9     O846      1.20339      .   S
    C449   O846      1.20339      .   S
    C9     O847      1.20345      .   S
    C425   O847      1.20345      .   S
    C207   O848      0.69099      .   S
    C231   O848      0.69099      .   S
    C207   O849      0.68028      .   S
    C351   O849      0.68028      .   S
    C203   O850      0.69099      .   S
    C227   O850      0.69099      .   S
    C203   O851      0.68029      .   S
    C347   O851      0.68029      .   S
    C205   O852      0.69100      .   S
    C229   O852      0.69100      .   S
    C205   O853      0.68029      .   S
    C349   O853      0.68029      .   S
    C201   O854      0.69098      .   S
    C225   O854      0.69098      .   S
    C201   O855      0.68020      .   S
    C345   O855      0.68020      .   S
    C225   O856      0.69899      .   S
    C193   O856      0.69899      .   S
    C227   O857      0.69890      .   S
    C195   O857      0.69890      .   S
    C229   O858      0.69892      .   S
    C197   O858      0.69892      .   S
    C231   O859      0.69889      .   S
    C199   O859      0.69889      .   S
    C365   O860      0.66630      .   S
    C453   O860      0.66630      .   S
    C365   O861      0.68090      .   S
    C301   O861      0.68090      .   S
    C367   O862      0.66620      .   S
    C455   O862      0.66620      .   S
    C367   O863      0.68020      .   S
    C303   O863      0.68020      .   S
    C361   O864      0.66619      .   S
    C449   O864      0.66619      .   S
    C361   O865      0.68020      .   S
    C297   O865      0.68020      .   S
    C363   O866      0.66620      .   S
    C451   O866      0.66620      .   S
    C363   O867      0.68012      .   S
    C299   O867      0.68012      .   S
    C401   O868      0.66619      .   S
    C345   O868      0.66619      .   S
    C401   O869      1.20344      .   S
    C1     O869      1.20344      .   S
    C407   O870      0.66621      .   S
    C351   O870      0.66621      .   S
    C407   O871      1.20343      .   S
    C7     O871      1.20343      .   S
    C403   O872      0.66621      .   S
    C347   O872      0.66621      .   S
    C403   O873      1.20325      .   S
    C3     O873      1.20325      .   S
    C405   O874      0.66621      .   S
    C349   O874      0.66621      .   S
    C405   O875      1.20329      .   S
    C5     O875      1.20329      .   S
    C409   O876      1.11941      .   S
    C1     O876      1.11941      .   S
    C409   O877      0.64896      .   S
    C217   O877      0.64896      .   S
    C411   O878      1.11924      .   S
    C3     O878      1.11924      .   S
    C411   O879      0.64854      .   S
    C219   O879      0.64854      .   S
    C413   O880      1.11925      .   S
    C5     O880      1.11925      .   S
    C413   O881      0.64894      .   S
    C221   O881      0.64894      .   S
    C415   O882      1.11942      .   S
    C7     O882      1.11942      .   S
    C415   O883      0.64895      .   S
    C223   O883      0.64895      .   S
    C345   O884      0.68291      .   S
    C209   O884      0.68291      .   S
    C351   O885      0.68255      .   S
    C215   O885      0.68255      .   S
    C349   O886      0.68281      .   S
    C213   O886      0.68281      .   S
    C347   O887      0.68282      .   S
    C211   O887      0.68282      .   S
    C327   O888      0.69099      .   S
    C303   O888      0.69099      .   S
    C327   O889      0.54333      .   S
    C133   O889      0.54333  1_545   S
    C321   O890      0.69098      .   S
    C297   O890      0.69098      .   S
    C321   O891      0.54346      .   S
    C131   O891      0.54346      .   S
    C323   O892      0.69097      .   S
    C299   O892      0.69097      .   S
    C323   O893      0.54332      .   S
    C129   O893      0.54332  1_545   S
    C325   O894      0.69099      .   S
    C301   O894      0.69099      .   S
    C325   O895      0.54346      .   S
    C135   O895      0.54346      .   S
    C299   O896      0.54568      .   S
    C115   O896      0.54568      .   S
    C297   O897      0.54559      .   S
    C113   O897      0.54559      .   S
    C301   O898      0.54558      .   S
    C117   O898      0.54558      .   S
    C303   O899      0.54559      .   S
    C119   O899      0.54559      .   S
    C5     O900      1.12011      .   S
    C389   O900      1.12011      .   S
    C3     O901      1.12010      .   S
    C387   O901      1.12010      .   S
    C7     O902      1.11873      .   S
    C391   O902      1.11873      .   S
    C1     O903      1.11950      .   S
    C385   O903      1.11950      .   S
    C199   O904      0.75713      .   S
    C221   O904      0.75713      .   S
    C199   O905      0.70087      .   S
    C239   O905      0.70087      .   S
    C195   O906      0.75712      .   S
    C217   O906      0.75712      .   S
    C195   O907      0.70088      .   S
    C235   O907      0.70088      .   S
    C197   O908      0.75694  1_545   S
    C223   O908      0.75694      .   S
    C197   O909      0.70085      .   S
    C237   O909      0.70085      .   S
    C193   O910      0.75683  1_545   S
    C219   O910      0.75683      .   S
    C193   O911      0.70086      .   S
    C233   O911      0.70086      .   S
    C219   O912      0.62279      .   S
    C395   O912      0.62279      .   S
    C217   O913      0.62232      .   S
    C393   O913      0.62232      .   S
    C221   O914      0.62229      .   S
    C397   O914      0.62229      .   S
    C223   O915      0.62233      .   S
    C399   O915      0.62233      .   S
    C429   O916      0.66629      .   S
    C357   O916      0.66629      .   S
    C427   O917      0.66629      .   S
    C355   O917      0.66629      .   S
    C425   O918      0.66626      .   S
    C353   O918      0.66626      .   S
    C431   O919      0.66628      .   S
    C359   O919      0.66628      .   S
    C215   O920      0.69127      .   S
    C239   O920      0.69127      .   S
    C215   O921      0.54483      .   S
    C63    O921      0.54483      .   S
    C211   O922      0.69122      .   S
    C235   O922      0.69122      .   S
    C211   O923      0.54460      .   S
    C59    O923      0.54460      .   S
    C213   O924      0.69122      .   S
    C237   O924      0.69122      .   S
    C213   O925      0.54460      .   S
    C61    O925      0.54460      .   S
    C209   O926      0.69122      .   S
    C233   O926      0.69122      .   S
    C209   O927      0.54455      .   S
    C57    O927      0.54455      .   S
    C235   O928      0.54465      .   S
    C75    O928      0.54465      .   S
    C237   O929      0.54466      .   S
    C77    O929      0.54466      .   S
    C239   O930      0.54465      .   S
    C79    O930      0.54465      .   S
    C233   O931      0.54465      .   S
    C73    O931      0.54465      .   S
    C91    O932      0.54464      .   S
    C259   O932      0.54464      .   S
    C95    O933      0.54463      .   S
    C263   O933      0.54463      .   S
    C89    O934      0.54455      .   S
    C257   O934      0.54455      .   S
    C93    O935      0.54456      .   S
    C261   O935      0.54456      .   S
    C353   O936      0.68285      .   S
    C257   O936      0.68285      .   S
    C353   O937      0.68023      .   S
    C249   O937      0.68023      .   S
    C355   O938      0.68285      .   S
    C259   O938      0.68285      .   S
    C355   O939      0.68022      .   S
    C251   O939      0.68022      .   S
    C357   O940      0.68284      .   S
    C261   O940      0.68284      .   S
    C357   O941      0.68023      .   S
    C253   O941      0.68023      .   S
    C359   O942      0.68285      .   S
    C263   O942      0.68285      .   S
    C359   O943      0.68022      .   S
    C255   O943      0.68022      .   S
    C259   O944      0.69121      .   S
    C283   O944      0.69121      .   S
    C263   O945      0.69120      .   S
    C287   O945      0.69120      .   S
    C257   O946      0.69121      .   S
    C281   O946      0.69121      .   S
    C261   O947      0.69121      .   S
    C285   O947      0.69121      .   S
    C391   O948      0.64939      .   S
    C175   O948      0.64939      .   S
    C387   O949      0.64893      .   S
    C171   O949      0.64893      .   S
    C389   O950      0.64893      .   S
    C173   O950      0.64893      .   S
    C385   O951      0.64894      .   S
    C169   O951      0.64894      .   S
    C85    O952      0.54556      .   S
    C253   O952      0.54556      .   S
    C87    O953      0.54556      .   S
    C255   O953      0.54556      .   S
    C83    O954      0.54556      .   S
    C251   O954      0.54556      .   S
    C81    O955      0.54555      .   S
    C249   O955      0.54555      .   S
    C255   O956      0.69102      .   S
    C279   O956      0.69102      .   S
    C253   O957      0.69103      .   S
    C277   O957      0.69103      .   S
    C251   O958      0.69102      .   S
    C275   O958      0.69102      .   S
    C249   O959      0.69102      .   S
    C273   O959      0.69102      .   S
    C373   O960      0.62240      .   S
    C173   O960      0.62240      .   S
    C375   O961      0.62239      .   S
    C175   O961      0.62239      .   S
    C369   O962      0.62233      .   S
    C169   O962      0.62233      .   S
    C371   O963      0.62232      .   S
    C171   O963      0.62232      .   S
    C287   O964      0.54464      .   S
    C111   O964      0.54464      .   S
    C287   O965      0.70086      .   S
    C247   O965      0.70086      .   S
    C285   O966      0.54466      .   S
    C109   O966      0.54466      .   S
    C285   O967      0.70086      .   S
    C245   O967      0.70086      .   S
    C283   O968      0.54463      .   S
    C107   O968      0.54463      .   S
    C283   O969      0.70086      .   S
    C243   O969      0.70086      .   S
    C281   O970      0.54465      .   S
    C105   O970      0.54465      .   S
    C281   O971      0.70037      .   S
    C241   O971      0.70037      .   S
    C273   O972      0.69867      .   S
    C241   O972      0.69867      .   S
    C275   O973      0.69888      .   S
    C243   O973      0.69888      .   S
    C277   O974      0.69888      .   S
    C245   O974      0.69888      .   S
    C279   O975      0.69889      .   S
    C247   O975      0.69889      .   S
    C376   O976      1.23746      .   S
    C12    O976      1.23746      .   S
    C377   O977      1.23736      .   S
    C13    O977      1.23736      .   S
    C378   O978      1.23746      .   S
    C14    O978      1.23746      .   S
    C379   O979      1.23741      .   S
    C15    O979      1.23741      .   S
    C380   O980      1.23742  1_655   S
    C8     O980      1.23742      .   S
    C381   O981      1.23742  1_655   S
    C9     O981      1.23742      .   S
    C382   O982      1.23735  1_655   S
    C10    O982      1.23735      .   S
    C383   O983      1.23742  1_655   S
    C11    O983      1.23742      .   S
    C400   O984      1.23734      .   S
    C8     O984      1.23734      .   S
    C401   O985      1.23731      .   S
    C9     O985      1.23731      .   S
    C402   O986      1.23731      .   S
    C10    O986      1.23731      .   S
    C403   O987      1.23735      .   S
    C11    O987      1.23735      .   S
    C404   O988      1.23730      .   S
    C12    O988      1.23730      .   S
    C405   O989      1.23733      .   S
    C13    O989      1.23733      .   S
    C406   O990      1.23731      .   S
    C14    O990      1.23731      .   S
    C407   O991      1.23732      .   S
    C15    O991      1.23732      .   S
    C424   O992      1.23735  1_455   S
    C4     O992      1.23735      .   S
    C425   O993      1.23745  1_455   S
    C5     O993      1.23745      .   S
    C426   O994      1.23748  1_455   S
    C6     O994      1.23748      .   S
    C427   O995      1.23738  1_455   S
    C7     O995      1.23738      .   S
    C428   O996      1.23744      .   S
    C0     O996      1.23744      .   S
    C429   O997      1.23737      .   S
    C1     O997      1.23737      .   S
    C430   O998      1.23736      .   S
    C2     O998      1.23736      .   S
    C431   O999      1.23744      .   S
    C3     O999      1.23744      .   S
    C448   O1000     1.23718      .   S
    C0     O1000     1.23718      .   S
    C449   O1001     1.23732      .   S
    C1     O1001     1.23732      .   S
    C450   O1002     1.23736      .   S
    C2     O1002     1.23736      .   S
    C451   O1003     1.23708      .   S
    C3     O1003     1.23708      .   S
    C452   O1004     1.23730      .   S
    C4     O1004     1.23730      .   S
    C453   O1005     1.23713      .   S
    C5     O1005     1.23713      .   S
    C454   O1006     1.23708      .   S
    C6     O1006     1.23708      .   S
    C455   O1007     1.23732      .   S
    C7     O1007     1.23732      .   S
