# CIF file generated by openbabel 2.4.90, see http://openbabel.sf.net
data_I
_chemical_name_common ''
_cell_length_a 20.297
_cell_length_b 22.807
_cell_length_c 18.089
_cell_angle_alpha 99.858
_cell_angle_beta 89.934
_cell_angle_gamma 116.458
_space_group_name_H-M_alt 'P 1'
_space_group_name_Hall 'P 1'
loop_
    _symmetry_equiv_pos_as_xyz
    x,y,z
loop_
    _atom_site_label
    _atom_site_type_symbol
    _atom_site_fract_x
    _atom_site_fract_y
    _atom_site_fract_z
    _atom_site_occupancy
    C0      C    0.23007   0.40465   0.97388   1.000
    C1      C    0.23007   0.90465   0.97388   1.000
    C2      C    0.73006   0.40465   0.97388   1.000
    C3      C    0.73007   0.90465   0.97388   1.000
    C4      C    0.32535   0.09531   0.52608   1.000
    C5      C    0.32536   0.59532   0.52608   1.000
    C6      C    0.82535   0.09531   0.52608   1.000
    C7      C    0.82535   0.59532   0.52608   1.000
    C8      C    0.26995   0.09537   0.02610   1.000
    C9      C    0.26996   0.59538   0.02610   1.000
    C10     C    0.76995   0.09537   0.02610   1.000
    C11     C    0.76995   0.59537   0.02610   1.000
    C12     C    0.17466   0.40471   0.47390   1.000
    C13     C    0.17467   0.90471   0.47390   1.000
    C14     C    0.67466   0.40471   0.47390   1.000
    C15     C    0.67466   0.90471   0.47390   1.000
    C16     C    0.25001   0.25001   0.00000   1.000
    C17     C    0.25001   0.75001   0.99998   1.000
    C18     C    0.75001   0.25001   0.00000   1.000
    C19     C    0.75001   0.75002   0.99999   1.000
    C20     C    0.00001   0.25001   0.49999   1.000
    C21     C    0.00000   0.75001   0.49998   1.000
    C22     C    0.50001   0.25001   0.49999   1.000
    C23     C    0.50001   0.75001   0.49999   1.000
    C24     C    0.19802   0.18021   0.83599   1.000
    C25     C    0.19802   0.68022   0.83599   1.000
    C26     C    0.69801   0.18021   0.83599   1.000
    C27     C    0.69802   0.68022   0.83599   1.000
    C28     C    0.12712   0.07619   0.74556   1.000
    C29     C    0.12712   0.57620   0.74556   1.000
    C30     C    0.62712   0.07619   0.74556   1.000
    C31     C    0.62712   0.57620   0.74556   1.000
    C32     C    0.41490   0.06435   0.64632   1.000
    C33     C    0.41491   0.56435   0.64632   1.000
    C34     C    0.91489   0.06435   0.64632   1.000
    C35     C    0.91490   0.56435   0.64632   1.000
    C36     C    0.00421   0.16564   0.65630   1.000
    C37     C    0.00422   0.66565   0.65636   1.000
    C38     C    0.50421   0.16564   0.65636   1.000
    C39     C    0.50421   0.66565   0.65636   1.000
    C40     C    0.09706   0.01460   0.62733   1.000
    C41     C    0.09707   0.51461   0.62733   1.000
    C42     C    0.59706   0.01460   0.62733   1.000
    C43     C    0.59706   0.51461   0.62733   1.000
    C44     C    0.07310   0.26878   0.75113   1.000
    C45     C    0.07310   0.76879   0.75112   1.000
    C46     C    0.57309   0.26879   0.75113   1.000
    C47     C    0.57310   0.76879   0.75112   1.000
    C48     C    0.38324   0.37641   0.51630   1.000
    C49     C    0.38325   0.87641   0.51630   1.000
    C50     C    0.88324   0.37641   0.51630   1.000
    C51     C    0.88324   0.87641   0.51630   1.000
    C52     C    0.51790   0.31955   0.66402   1.000
    C53     C    0.51790   0.81956   0.66402   1.000
    C54     C    0.00000   0.31955   0.66402   1.000
    C55     C    0.00000   0.81955   0.66401   1.000
    C56     C    0.05115   0.42360   0.75445   1.000
    C57     C    0.05116   0.92361   0.75444   1.000
    C58     C    0.55115   0.42360   0.75445   1.000
    C59     C    0.55115   0.92361   0.75445   1.000
    C60     C    0.35064   0.43565   0.85357   1.000
    C61     C    0.35065   0.93566   0.85357   1.000
    C62     C    0.85064   0.43565   0.85357   1.000
    C63     C    0.85064   0.93565   0.85357   1.000
    C64     C    0.33849   0.33442   0.84370   1.000
    C65     C    0.33849   0.83443   0.84370   1.000
    C66     C    0.83849   0.33442   0.84371   1.000
    C67     C    0.83849   0.83443   0.84370   1.000
    C68     C    0.08256   0.48533   0.87272   1.000
    C69     C    0.08256   0.98534   0.87272   1.000
    C70     C    0.58256   0.48533   0.87272   1.000
    C71     C    0.58256   0.98534   0.87272   1.000
    C72     C    0.30410   0.23126   0.74892   1.000
    C73     C    0.30410   0.73127   0.74891   1.000
    C74     C    0.80410   0.23126   0.74892   1.000
    C75     C    0.80410   0.73127   0.74891   1.000
    C76     C    0.00687   0.12355   0.98366   1.000
    C77     C    0.00687   0.62356   0.98366   1.000
    C78     C    0.50687   0.12355   0.98367   1.000
    C79     C    0.50687   0.62356   0.98366   1.000
    C80     C    0.30200   0.31981   0.16399   1.000
    C81     C    0.30201   0.81982   0.16399   1.000
    C82     C    0.80200   0.31981   0.16399   1.000
    C83     C    0.80200   0.81982   0.16399   1.000
    C84     C    0.37290   0.42383   0.25442   1.000
    C85     C    0.37291   0.92383   0.25442   1.000
    C86     C    0.87290   0.42383   0.25442   1.000
    C87     C    0.87290   0.92383   0.25442   1.000
    C88     C    0.08512   0.43567   0.35367   1.000
    C89     C    0.08513   0.93568   0.35366   1.000
    C90     C    0.58512   0.43567   0.35366   1.000
    C91     C    0.58512   0.93568   0.35366   1.000
    C92     C    0.49581   0.33438   0.34362   1.000
    C93     C    0.49581   0.83438   0.34362   1.000
    C94     C    0.99580   0.33438   0.34362   1.000
    C95     C    0.99581   0.83438   0.34360   1.000
    C96     C    0.40295   0.48542   0.37265   1.000
    C97     C    0.40296   0.98542   0.37265   1.000
    C98     C    0.90295   0.48541   0.37265   1.000
    C99     C    0.90295   0.98542   0.37265   1.000
    C100    C    0.42692   0.23123   0.24885   1.000
    C101    C    0.42693   0.73124   0.24885   1.000
    C102    C    0.92692   0.23123   0.24880   1.000
    C103    C    0.92692   0.73124   0.24885   1.000
    C104    C    0.11677   0.12362   0.48368   1.000
    C105    C    0.11678   0.62362   0.48368   1.000
    C106    C    0.61677   0.12362   0.48368   1.000
    C107    C    0.61677   0.62362   0.48368   1.000
    C108    C    0.98211   0.18047   0.33590   1.000
    C109    C    0.98212   0.68048   0.33596   1.000
    C110    C    0.48211   0.18047   0.33596   1.000
    C111    C    0.48212   0.68048   0.33596   1.000
    C112    C    0.44886   0.07642   0.24553   1.000
    C113    C    0.44886   0.57642   0.24553   1.000
    C114    C    0.94885   0.07641   0.24553   1.000
    C115    C    0.94886   0.57642   0.24553   1.000
    C116    C    0.14937   0.06437   0.14642   1.000
    C117    C    0.14938   0.56438   0.14641   1.000
    C118    C    0.64937   0.06437   0.14642   1.000
    C119    C    0.64937   0.56438   0.14641   1.000
    C120    C    0.16152   0.16559   0.15628   1.000
    C121    C    0.16152   0.66560   0.15627   1.000
    C122    C    0.66152   0.16559   0.15628   1.000
    C123    C    0.66152   0.66560   0.15627   1.000
    C124    C    0.41745   0.01468   0.12726   1.000
    C125    C    0.41746   0.51468   0.12725   1.000
    C126    C    0.91745   0.01468   0.12726   1.000
    C127    C    0.91745   0.51468   0.12725   1.000
    C128    C    0.19591   0.26876   0.25106   1.000
    C129    C    0.19592   0.76876   0.25100   1.000
    C130    C    0.69591   0.26875   0.25106   1.000
    C131    C    0.69591   0.76876   0.25106   1.000
    C132    C    0.49316   0.37647   0.01630   1.000
    C133    C    0.49316   0.87647   0.01631   1.000
    C134    C    0.99315   0.37647   0.01632   1.000
    C135    C    0.99316   0.87647   0.01631   1.000
    C136    C    0.15512   0.17714   0.79724   1.000
    C137    C    0.15512   0.67715   0.79724   1.000
    C138    C    0.65511   0.17714   0.79724   1.000
    C139    C    0.65512   0.67715   0.79724   1.000
    C140    C    0.02117   0.39078   0.54388   1.000
    C141    C    0.02117   0.89078   0.54387   1.000
    C142    C    0.52117   0.39078   0.54380   1.000
    C143    C    0.52117   0.89078   0.54380   1.000
    C144    C    0.11536   0.11835   0.74536   1.000
    C145    C    0.11536   0.61836   0.74536   1.000
    C146    C    0.61536   0.11835   0.74536   1.000
    C147    C    0.61536   0.61836   0.74536   1.000
    C148    C    0.43818   0.03094   0.62355   1.000
    C149    C    0.43818   0.53095   0.62355   1.000
    C150    C    0.93817   0.03094   0.62350   1.000
    C151    C    0.93818   0.53095   0.62355   1.000
    C152    C    0.39212   0.47003   0.57690   1.000
    C153    C    0.39213   0.97003   0.57697   1.000
    C154    C    0.89212   0.47003   0.57698   1.000
    C155    C    0.89212   0.97003   0.57698   1.000
    C156    C    0.04549   0.16786   0.69665   1.000
    C157    C    0.04549   0.66787   0.69664   1.000
    C158    C    0.54548   0.16786   0.69664   1.000
    C159    C    0.54549   0.66787   0.69664   1.000
    C160    C    0.05885   0.11213   0.69496   1.000
    C161    C    0.05886   0.61214   0.69495   1.000
    C162    C    0.55885   0.11213   0.69490   1.000
    C163    C    0.55885   0.61214   0.69495   1.000
    C164    C    0.03947   0.00265   0.61493   1.000
    C165    C    0.03947   0.50266   0.61493   1.000
    C166    C    0.53946   0.00265   0.61493   1.000
    C167    C    0.53947   0.50266   0.61493   1.000
    C168    C    0.49314   0.44084   0.56993   1.000
    C169    C    0.49315   0.94084   0.56990   1.000
    C170    C    0.99314   0.44084   0.56993   1.000
    C171    C    0.99314   0.94084   0.56993   1.000
    C172    C    0.01236   0.04823   0.64351   1.000
    C173    C    0.01236   0.54823   0.64350   1.000
    C174    C    0.51236   0.04823   0.64350   1.000
    C175    C    0.51236   0.54823   0.64350   1.000
    C176    C    0.08469   0.22631   0.74882   1.000
    C177    C    0.08469   0.72631   0.74881   1.000
    C178    C    0.58469   0.22631   0.74881   1.000
    C179    C    0.58469   0.72631   0.74881   1.000
    C180    C    0.13941   0.23149   0.80062   1.000
    C181    C    0.13941   0.73149   0.80061   1.000
    C182    C    0.63940   0.23149   0.80062   1.000
    C183    C    0.63941   0.73149   0.80061   1.000
    C184    C    0.17678   0.29366   0.85803   1.000
    C185    C    0.17679   0.79367   0.85803   1.000
    C186    C    0.67678   0.29366   0.85803   1.000
    C187    C    0.67678   0.79367   0.85803   1.000
    C188    C    0.41937   0.42440   0.55108   1.000
    C189    C    0.41938   0.92441   0.55108   1.000
    C190    C    0.91937   0.42440   0.55108   1.000
    C191    C    0.91937   0.92441   0.55108   1.000
    C192    C    0.31417   0.45329   0.55396   1.000
    C193    C    0.31417   0.95329   0.55390   1.000
    C194    C    0.81417   0.45329   0.55396   1.000
    C195    C    0.81417   0.95329   0.55396   1.000
    C196    C    0.47802   0.32270   0.70277   1.000
    C197    C    0.47803   0.82271   0.70277   1.000
    C198    C    0.97802   0.32270   0.70277   1.000
    C199    C    0.97803   0.82271   0.70276   1.000
    C200    C    0.13044   0.10923   0.95610   1.000
    C201    C    0.13044   0.60923   0.95615   1.000
    C202    C    0.63043   0.10922   0.95616   1.000
    C203    C    0.63044   0.60923   0.95616   1.000
    C204    C    0.49713   0.38151   0.75465   1.000
    C205    C    0.49713   0.88151   0.75465   1.000
    C206    C    0.99713   0.38151   0.75465   1.000
    C207    C    0.99713   0.88152   0.75465   1.000
    C208    C    0.40731   0.46904   0.87639   1.000
    C209    C    0.40731   0.96905   0.87639   1.000
    C210    C    0.90731   0.46904   0.87639   1.000
    C211    C    0.90731   0.96905   0.87630   1.000
    C212    C    0.42214   0.02995   0.92296   1.000
    C213    C    0.42214   0.52995   0.92296   1.000
    C214    C    0.92214   0.02995   0.92296   1.000
    C215    C    0.92214   0.52995   0.92296   1.000
    C216    C    0.37758   0.33214   0.80340   1.000
    C217    C    0.37758   0.83215   0.80339   1.000
    C218    C    0.87758   0.33214   0.80340   1.000
    C219    C    0.87758   0.83215   0.80339   1.000
    C220    C    0.44679   0.38781   0.80507   1.000
    C221    C    0.44679   0.88782   0.80507   1.000
    C222    C    0.94679   0.38781   0.80507   1.000
    C223    C    0.94679   0.88782   0.80507   1.000
    C224    C    0.03691   0.49730   0.88509   1.000
    C225    C    0.03691   0.99730   0.88509   1.000
    C226    C    0.53690   0.49730   0.88509   1.000
    C227    C    0.53690   0.99730   0.88509   1.000
    C228    C    0.05237   0.05912   0.93009   1.000
    C229    C    0.05238   0.55912   0.93009   1.000
    C230    C    0.55237   0.05912   0.93009   1.000
    C231    C    0.55237   0.55912   0.93009   1.000
    C232    C    0.46422   0.45174   0.85649   1.000
    C233    C    0.46423   0.95174   0.85649   1.000
    C234    C    0.96422   0.45174   0.85649   1.000
    C235    C    0.96422   0.95174   0.85649   1.000
    C236    C    0.35826   0.27369   0.75121   1.000
    C237    C    0.35826   0.77370   0.75121   1.000
    C238    C    0.85825   0.27369   0.75121   1.000
    C239    C    0.85826   0.77370   0.75121   1.000
    C240    C    0.40785   0.26843   0.69940   1.000
    C241    C    0.40785   0.76844   0.69940   1.000
    C242    C    0.90785   0.26843   0.69940   1.000
    C243    C    0.90785   0.76844   0.69940   1.000
    C244    C    0.38293   0.20627   0.64194   1.000
    C245    C    0.38293   0.70628   0.64194   1.000
    C246    C    0.88292   0.20627   0.64194   1.000
    C247    C    0.88293   0.70628   0.64193   1.000
    C248    C    0.49501   0.07556   0.94890   1.000
    C249    C    0.49502   0.57556   0.94889   1.000
    C250    C    0.99501   0.07556   0.94889   1.000
    C251    C    0.99501   0.57556   0.94889   1.000
    C252    C    0.36091   0.04671   0.94596   1.000
    C253    C    0.36092   0.54671   0.94596   1.000
    C254    C    0.86091   0.04671   0.94590   1.000
    C255    C    0.86091   0.54671   0.94596   1.000
    C256    C    0.34490   0.32288   0.20274   1.000
    C257    C    0.34491   0.82289   0.20274   1.000
    C258    C    0.84489   0.32288   0.20274   1.000
    C259    C    0.84490   0.82289   0.20274   1.000
    C260    C    0.47884   0.10924   0.45610   1.000
    C261    C    0.47885   0.60924   0.45610   1.000
    C262    C    0.97884   0.10924   0.45610   1.000
    C263    C    0.97884   0.60924   0.45610   1.000
    C264    C    0.38466   0.38167   0.25462   1.000
    C265    C    0.38467   0.88167   0.25462   1.000
    C266    C    0.88465   0.38167   0.25462   1.000
    C267    C    0.88466   0.88167   0.25462   1.000
    C268    C    0.06184   0.46908   0.37643   1.000
    C269    C    0.06185   0.96908   0.37643   1.000
    C270    C    0.56184   0.46908   0.37643   1.000
    C271    C    0.56184   0.96908   0.37643   1.000
    C272    C    0.10790   0.02999   0.42300   1.000
    C273    C    0.10790   0.52999   0.42300   1.000
    C274    C    0.60789   0.02999   0.42301   1.000
    C275    C    0.60790   0.53000   0.42300   1.000
    C276    C    0.45453   0.33216   0.30334   1.000
    C277    C    0.45454   0.83216   0.30333   1.000
    C278    C    0.95452   0.33215   0.30334   1.000
    C279    C    0.95453   0.83216   0.30333   1.000
    C280    C    0.44117   0.38789   0.30503   1.000
    C281    C    0.44117   0.88789   0.30502   1.000
    C282    C    0.94116   0.38789   0.30503   1.000
    C283    C    0.94117   0.88789   0.30502   1.000
    C284    C    0.46055   0.49737   0.38505   1.000
    C285    C    0.46056   0.99737   0.38500   1.000
    C286    C    0.96055   0.49736   0.38505   1.000
    C287    C    0.96055   0.99737   0.38505   1.000
    C288    C    0.00687   0.05918   0.43005   1.000
    C289    C    0.00688   0.55919   0.43005   1.000
    C290    C    0.50687   0.05918   0.43005   1.000
    C291    C    0.50687   0.55919   0.43005   1.000
    C292    C    0.48766   0.45179   0.35648   1.000
    C293    C    0.48766   0.95180   0.35647   1.000
    C294    C    0.98765   0.45179   0.35648   1.000
    C295    C    0.98766   0.95180   0.35647   1.000
    C296    C    0.41533   0.27371   0.25117   1.000
    C297    C    0.41533   0.77372   0.25116   1.000
    C298    C    0.91532   0.27371   0.25117   1.000
    C299    C    0.91533   0.77372   0.25116   1.000
    C300    C    0.36061   0.26853   0.19937   1.000
    C301    C    0.36062   0.76854   0.19936   1.000
    C302    C    0.86061   0.26853   0.19936   1.000
    C303    C    0.86061   0.76854   0.19936   1.000
    C304    C    0.32324   0.20636   0.14195   1.000
    C305    C    0.32324   0.70636   0.14194   1.000
    C306    C    0.82323   0.20636   0.14195   1.000
    C307    C    0.82324   0.70636   0.14195   1.000
    C308    C    0.08064   0.07562   0.44890   1.000
    C309    C    0.08065   0.57562   0.44890   1.000
    C310    C    0.58064   0.07562   0.44890   1.000
    C311    C    0.58064   0.57562   0.44890   1.000
    C312    C    0.18585   0.04674   0.44603   1.000
    C313    C    0.18585   0.54674   0.44603   1.000
    C314    C    0.68585   0.04674   0.44603   1.000
    C315    C    0.68585   0.54674   0.44603   1.000
    C316    C    0.02199   0.17732   0.29720   1.000
    C317    C    0.02199   0.67732   0.29721   1.000
    C318    C    0.52199   0.17732   0.29720   1.000
    C319    C    0.52199   0.67732   0.29721   1.000
    C320    C    0.36958   0.39079   0.04382   1.000
    C321    C    0.36959   0.89079   0.04382   1.000
    C322    C    0.86958   0.39079   0.04382   1.000
    C323    C    0.86958   0.89079   0.04382   1.000
    C324    C    0.00288   0.11851   0.24533   1.000
    C325    C    0.00289   0.61852   0.24532   1.000
    C326    C    0.50288   0.11851   0.24533   1.000
    C327    C    0.50288   0.61852   0.24532   1.000
    C328    C    0.09270   0.03098   0.12360   1.000
    C329    C    0.09271   0.53098   0.12300   1.000
    C330    C    0.59270   0.03098   0.12360   1.000
    C331    C    0.59270   0.53098   0.12359   1.000
    C332    C    0.07788   0.47007   0.07702   1.000
    C333    C    0.07788   0.97008   0.07702   1.000
    C334    C    0.57788   0.47007   0.07702   1.000
    C335    C    0.57788   0.97007   0.07702   1.000
    C336    C    0.12243   0.16788   0.19658   1.000
    C337    C    0.12243   0.66788   0.19658   1.000
    C338    C    0.62243   0.16787   0.19659   1.000
    C339    C    0.62243   0.66788   0.19658   1.000
    C340    C    0.05322   0.11221   0.19491   1.000
    C341    C    0.05322   0.61221   0.19491   1.000
    C342    C    0.55322   0.11221   0.19491   1.000
    C343    C    0.55322   0.61221   0.19491   1.000
    C344    C    0.46311   0.00272   0.11489   1.000
    C345    C    0.46311   0.50272   0.11488   1.000
    C346    C    0.96310   0.00272   0.11480   1.000
    C347    C    0.96311   0.50272   0.11488   1.000
    C348    C    0.44765   0.44090   0.06989   1.000
    C349    C    0.44765   0.94091   0.06980   1.000
    C350    C    0.94764   0.44090   0.06989   1.000
    C351    C    0.94765   0.94091   0.06989   1.000
    C352    C    0.03579   0.04828   0.14349   1.000
    C353    C    0.03579   0.54828   0.14349   1.000
    C354    C    0.53579   0.04828   0.14349   1.000
    C355    C    0.53579   0.54829   0.14349   1.000
    C356    C    0.14175   0.22633   0.24877   1.000
    C357    C    0.14176   0.72633   0.24876   1.000
    C358    C    0.64175   0.22632   0.24877   1.000
    C359    C    0.64176   0.72633   0.24876   1.000
    C360    C    0.09216   0.23159   0.30058   1.000
    C361    C    0.09217   0.73159   0.30057   1.000
    C362    C    0.59216   0.23159   0.30058   1.000
    C363    C    0.59217   0.73159   0.30058   1.000
    C364    C    0.11709   0.29375   0.35804   1.000
    C365    C    0.11709   0.79375   0.35804   1.000
    C366    C    0.61709   0.29375   0.35800   1.000
    C367    C    0.61709   0.79375   0.35804   1.000
    C368    C    0.00501   0.42446   0.05109   1.000
    C369    C    0.00501   0.92447   0.05109   1.000
    C370    C    0.50501   0.42447   0.05100   1.000
    C371    C    0.50501   0.92446   0.05109   1.000
    C372    C    0.13911   0.45332   0.05403   1.000
    C373    C    0.13912   0.95332   0.05403   1.000
    C374    C    0.63911   0.45332   0.05400   1.000
    C375    C    0.63911   0.95332   0.05403   1.000
    C376    C    0.22415   0.29881   0.91082   1.000
    C377    C    0.22415   0.79881   0.91082   1.000
    C378    C    0.72414   0.29881   0.91082   1.000
    C379    C    0.72415   0.79881   0.91082   1.000
    C380    C    0.16334   0.34235   0.85634   1.000
    C381    C    0.16334   0.84236   0.85634   1.000
    C382    C    0.66333   0.34235   0.85634   1.000
    C383    C    0.66334   0.84236   0.85634   1.000
    C384    C    0.27100   0.39384   0.52158   1.000
    C385    C    0.27100   0.89384   0.52158   1.000
    C386    C    0.77099   0.39383   0.52158   1.000
    C387    C    0.77100   0.89384   0.52158   1.000
    C388    C    0.29193   0.49850   0.56619   1.000
    C389    C    0.29193   0.99850   0.56619   1.000
    C390    C    0.79192   0.49849   0.56619   1.000
    C391    C    0.79193   0.99850   0.56619   1.000
    C392    C    0.47186   0.33237   0.51283   1.000
    C393    C    0.47186   0.83237   0.51283   1.000
    C394    C    0.97186   0.33237   0.51283   1.000
    C395    C    0.97186   0.83238   0.51283   1.000
    C396    C    0.08955   0.40745   0.55631   1.000
    C397    C    0.08955   0.90746   0.55631   1.000
    C398    C    0.58954   0.40745   0.55631   1.000
    C399    C    0.58955   0.90745   0.55631   1.000
    C400    C    0.42526   0.20102   0.58920   1.000
    C401    C    0.42527   0.70103   0.58920   1.000
    C402    C    0.92526   0.20102   0.58920   1.000
    C403    C    0.92526   0.70103   0.58920   1.000
    C404    C    0.32061   0.15771   0.64355   1.000
    C405    C    0.32061   0.65772   0.64355   1.000
    C406    C    0.82060   0.15771   0.64350   1.000
    C407    C    0.82061   0.65771   0.64355   1.000
    C408    C    0.37722   0.10618   0.97832   1.000
    C409    C    0.37722   0.60618   0.97832   1.000
    C410    C    0.87721   0.10617   0.97832   1.000
    C411    C    0.87721   0.60618   0.97832   1.000
    C412    C    0.29344   0.00150   0.93370   1.000
    C413    C    0.29344   0.50150   0.93375   1.000
    C414    C    0.79344   0.00150   0.93375   1.000
    C415    C    0.79344   0.50150   0.93375   1.000
    C416    C    0.13944   0.16759   0.98720   1.000
    C417    C    0.13944   0.66760   0.98720   1.000
    C418    C    0.63943   0.16759   0.98720   1.000
    C419    C    0.63944   0.66760   0.98720   1.000
    C420    C    0.18223   0.09264   0.94373   1.000
    C421    C    0.18223   0.59265   0.94373   1.000
    C422    C    0.68222   0.09264   0.94373   1.000
    C423    C    0.68222   0.59265   0.94373   1.000
    C424    C    0.27586   0.20121   0.08917   1.000
    C425    C    0.27587   0.70122   0.08916   1.000
    C426    C    0.77586   0.20121   0.08917   1.000
    C427    C    0.77587   0.70122   0.08916   1.000
    C428    C    0.33669   0.15767   0.14363   1.000
    C429    C    0.33670   0.65767   0.14363   1.000
    C430    C    0.83669   0.15767   0.14363   1.000
    C431    C    0.83669   0.65768   0.14363   1.000
    C432    C    0.22902   0.10619   0.47840   1.000
    C433    C    0.22902   0.60620   0.47840   1.000
    C434    C    0.72902   0.10619   0.47840   1.000
    C435    C    0.72902   0.60620   0.47840   1.000
    C436    C    0.20809   0.00153   0.43380   1.000
    C437    C    0.20810   0.50153   0.43380   1.000
    C438    C    0.70809   0.00153   0.43380   1.000
    C439    C    0.70809   0.50154   0.43380   1.000
    C440    C    0.02815   0.16765   0.48715   1.000
    C441    C    0.02816   0.66765   0.48714   1.000
    C442    C    0.52815   0.16765   0.48710   1.000
    C443    C    0.52815   0.66765   0.48714   1.000
    C444    C    0.41046   0.09256   0.44367   1.000
    C445    C    0.41047   0.59256   0.44367   1.000
    C446    C    0.91046   0.09256   0.44367   1.000
    C447    C    0.91046   0.59256   0.44367   1.000
    C448    C    0.07476   0.29900   0.41078   1.000
    C449    C    0.07476   0.79900   0.41070   1.000
    C450    C    0.57476   0.29900   0.41078   1.000
    C451    C    0.57476   0.79900   0.41078   1.000
    C452    C    0.17941   0.34231   0.35640   1.000
    C453    C    0.17942   0.84231   0.35642   1.000
    C454    C    0.67941   0.34231   0.35642   1.000
    C455    C    0.67941   0.84231   0.35642   1.000
    C456    C    0.12282   0.39386   0.02166   1.000
    C457    C    0.12282   0.89386   0.02166   1.000
    C458    C    0.62281   0.39386   0.02166   1.000
    C459    C    0.62281   0.89386   0.02166   1.000
    C460    C    0.20658   0.49853   0.06625   1.000
    C461    C    0.20659   0.99854   0.06625   1.000
    C462    C    0.70658   0.49853   0.06625   1.000
    C463    C    0.70658   0.99853   0.06620   1.000
    C464    C    0.36059   0.33242   0.01277   1.000
    C465    C    0.36060   0.83242   0.01277   1.000
    C466    C    0.86059   0.33242   0.01277   1.000
    C467    C    0.86059   0.83242   0.01277   1.000
    C468    C    0.31779   0.40736   0.05625   1.000
    C469    C    0.31780   0.90737   0.05625   1.000
    C470    C    0.81779   0.40736   0.05625   1.000
    C471    C    0.81779   0.90736   0.05625   1.000
    O472    O    0.36509   0.86161   0.02829   1.000
    O473    O    0.30530   0.79122   0.00638   1.000
    O474    O    0.86508   0.36160   0.02829   1.000
    O475    O    0.80530   0.29122   0.00639   1.000
    O476    O    0.86509   0.86161   0.02829   1.000
    O477    O    0.80530   0.79122   0.00638   1.000
    O478    O    0.36509   0.36160   0.02829   1.000
    O479    O    0.30530   0.29122   0.00639   1.000
    O480    O    0.49908   0.40047   0.03365   1.000
    O481    O    0.49908   0.90047   0.03370   1.000
    O482    O    0.99908   0.90047   0.03370   1.000
    O483    O    0.99908   0.40047   0.03370   1.000
    O484    O    0.13096   0.42359   0.03785   1.000
    O485    O    0.17644   0.39925   0.99777   1.000
    O486    O    0.13097   0.92359   0.03785   1.000
    O487    O    0.17645   0.89926   0.99777   1.000
    O488    O    0.63096   0.42359   0.03783   1.000
    O489    O    0.67644   0.39925   0.99777   1.000
    O490    O    0.63096   0.92359   0.03785   1.000
    O491    O    0.67644   0.89926   0.99777   1.000
    O492    O    0.73827   0.04695   0.04615   1.000
    O493    O    0.80332   0.12652   0.08486   1.000
    O494    O    0.72609   0.09401   0.98491   1.000
    O495    O    0.82358   0.10077   0.00221   1.000
    O496    O    0.73827   0.54695   0.04617   1.000
    O497    O    0.80332   0.62653   0.08486   1.000
    O498    O    0.72609   0.59401   0.98491   1.000
    O499    O    0.82358   0.60078   0.00221   1.000
    O500    O    0.23827   0.54695   0.04617   1.000
    O501    O    0.30333   0.62653   0.08486   1.000
    O502    O    0.22609   0.59401   0.98491   1.000
    O503    O    0.32359   0.60078   0.00221   1.000
    O504    O    0.23827   0.04695   0.04617   1.000
    O505    O    0.30333   0.12652   0.08486   1.000
    O506    O    0.22609   0.09401   0.98491   1.000
    O507    O    0.32358   0.10077   0.00221   1.000
    O508    O    0.84369   0.89908   0.05003   1.000
    O509    O    0.90861   0.91585   0.05686   1.000
    O510    O    0.34369   0.39907   0.05003   1.000
    O511    O    0.40861   0.41585   0.05686   1.000
    O512    O    0.34369   0.89908   0.05003   1.000
    O513    O    0.40862   0.91585   0.05681   1.000
    O514    O    0.84368   0.39907   0.05003   1.000
    O515    O    0.90861   0.41584   0.05686   1.000
    O516    O    0.47633   0.43268   0.06044   1.000
    O517    O    0.54144   0.44727   0.06401   1.000
    O518    O    0.47633   0.93268   0.06044   1.000
    O519    O    0.54144   0.94727   0.06406   1.000
    O520    O    0.97633   0.93269   0.06049   1.000
    O521    O    0.04145   0.94727   0.06406   1.000
    O522    O    0.97633   0.43268   0.06049   1.000
    O523    O    0.04145   0.44727   0.06406   1.000
    O524    O    0.67284   0.47593   0.06012   1.000
    O525    O    0.60849   0.46170   0.06551   1.000
    O526    O    0.17285   0.47593   0.06014   1.000
    O527    O    0.10850   0.46169   0.06552   1.000
    O528    O    0.17285   0.97593   0.06014   1.000
    O529    O    0.10850   0.96170   0.06552   1.000
    O530    O    0.67285   0.97593   0.06011   1.000
    O531    O    0.60850   0.96170   0.06552   1.000
    O532    O    0.27393   0.40600   0.01506   1.000
    O533    O    0.27393   0.90601   0.01506   1.000
    O534    O    0.77393   0.40600   0.01506   1.000
    O535    O    0.77393   0.90601   0.01506   1.000
    O536    O    0.45538   0.97181   0.09234   1.000
    O537    O    0.45538   0.47181   0.09238   1.000
    O538    O    0.95538   0.47181   0.09238   1.000
    O539    O    0.95537   0.97181   0.09234   1.000
    O540    O    0.58529   0.00053   0.10031   1.000
    O541    O    0.58529   0.50053   0.10031   1.000
    O542    O    0.08529   0.00053   0.10031   1.000
    O543    O    0.08530   0.50053   0.10001   1.000
    O544    O    0.79955   0.70379   0.11555   1.000
    O545    O    0.76294   0.72562   0.04458   1.000
    O546    O    0.29956   0.70379   0.11555   1.000
    O547    O    0.26294   0.72561   0.04457   1.000
    O548    O    0.29955   0.20378   0.11556   1.000
    O549    O    0.26294   0.22561   0.04459   1.000
    O550    O    0.79955   0.20378   0.11556   1.000
    O551    O    0.76294   0.22561   0.04459   1.000
    O552    O    0.94028   0.00870   0.12103   1.000
    O553    O    0.99945   0.02550   0.12915   1.000
    O554    O    0.94028   0.50870   0.12106   1.000
    O555    O    0.99945   0.52550   0.12918   1.000
    O556    O    0.44029   0.50870   0.12106   1.000
    O557    O    0.49945   0.52550   0.12918   1.000
    O558    O    0.44028   0.00870   0.12107   1.000
    O559    O    0.49945   0.02550   0.12919   1.000
    O560    O    0.06425   0.53963   0.13325   1.000
    O561    O    0.12104   0.54768   0.13470   1.000
    O562    O    0.56425   0.53963   0.13354   1.000
    O563    O    0.62104   0.54768   0.13500   1.000
    O564    O    0.06425   0.03963   0.13354   1.000
    O565    O    0.12104   0.04768   0.13501   1.000
    O566    O    0.56424   0.03963   0.13354   1.000
    O567    O    0.62104   0.04767   0.13501   1.000
    O568    O    0.32997   0.68202   0.14279   1.000
    O569    O    0.34193   0.73745   0.17065   1.000
    O570    O    0.82997   0.68202   0.14279   1.000
    O571    O    0.84193   0.73745   0.17066   1.000
    O572    O    0.32997   0.18202   0.14279   1.000
    O573    O    0.34193   0.23745   0.17066   1.000
    O574    O    0.82996   0.18201   0.14279   1.000
    O575    O    0.84192   0.23745   0.17066   1.000
    O576    O    0.54450   0.58025   0.16920   1.000
    O577    O    0.54450   0.08024   0.16920   1.000
    O578    O    0.04451   0.58025   0.16920   1.000
    O579    O    0.04450   0.08024   0.16920   1.000
    O580    O    0.64197   0.66674   0.17642   1.000
    O581    O    0.14198   0.66674   0.17642   1.000
    O582    O    0.14197   0.16674   0.17643   1.000
    O583    O    0.64197   0.16673   0.17644   1.000
    O584    O    0.32345   0.32135   0.18336   1.000
    O585    O    0.32346   0.82135   0.18336   1.000
    O586    O    0.82345   0.32134   0.18336   1.000
    O587    O    0.82345   0.82135   0.18336   1.000
    O588    O    0.08782   0.14004   0.19575   1.000
    O589    O    0.02805   0.11536   0.22012   1.000
    O590    O    0.08783   0.64005   0.19575   1.000
    O591    O    0.02806   0.61536   0.22012   1.000
    O592    O    0.58782   0.14004   0.19575   1.000
    O593    O    0.52805   0.11536   0.22012   1.000
    O594    O    0.58782   0.64005   0.19575   1.000
    O595    O    0.52805   0.61536   0.22012   1.000
    O596    O    0.13209   0.19710   0.22268   1.000
    O597    O    0.13210   0.69711   0.22267   1.000
    O598    O    0.63209   0.69711   0.22267   1.000
    O599    O    0.63209   0.19710   0.22268   1.000
    O600    O    0.85275   0.29571   0.20105   1.000
    O601    O    0.88797   0.27112   0.22526   1.000
    O602    O    0.85276   0.79571   0.20105   1.000
    O603    O    0.88797   0.77113   0.22526   1.000
    O604    O    0.35276   0.79571   0.20105   1.000
    O605    O    0.38798   0.77113   0.22526   1.000
    O606    O    0.35276   0.29571   0.20105   1.000
    O607    O    0.38797   0.27112   0.22527   1.000
    O608    O    0.86478   0.85228   0.22868   1.000
    O609    O    0.86477   0.35227   0.22868   1.000
    O610    O    0.36479   0.85228   0.22868   1.000
    O611    O    0.36478   0.35228   0.22868   1.000
    O612    O    0.97587   0.59747   0.24542   1.000
    O613    O    0.01244   0.64792   0.27126   1.000
    O614    O    0.47587   0.59747   0.24542   1.000
    O615    O    0.51243   0.64792   0.27126   1.000
    O616    O    0.97587   0.09746   0.24543   1.000
    O617    O    0.01243   0.14791   0.27126   1.000
    O618    O    0.47587   0.09746   0.24543   1.000
    O619    O    0.51243   0.14791   0.27126   1.000
    O620    O    0.66884   0.74755   0.24991   1.000
    O621    O    0.61696   0.72896   0.27467   1.000
    O622    O    0.16884   0.74755   0.24988   1.000
    O623    O    0.11697   0.72896   0.27467   1.000
    O624    O    0.16883   0.24754   0.24991   1.000
    O625    O    0.11696   0.22896   0.27468   1.000
    O626    O    0.66883   0.24754   0.24991   1.000
    O627    O    0.61696   0.22896   0.27468   1.000
    O628    O    0.92112   0.25247   0.24998   1.000
    O629    O    0.42113   0.25247   0.25001   1.000
    O630    O    0.42113   0.75248   0.25000   1.000
    O631    O    0.92113   0.75248   0.25000   1.000
    O632    O    0.93493   0.80294   0.27724   1.000
    O633    O    0.43494   0.80294   0.27724   1.000
    O634    O    0.93492   0.30293   0.27725   1.000
    O635    O    0.43493   0.30293   0.27725   1.000
    O636    O    0.37879   0.90275   0.25452   1.000
    O637    O    0.37878   0.40275   0.25452   1.000
    O638    O    0.87878   0.90275   0.25452   1.000
    O639    O    0.87877   0.40275   0.25452   1.000
    O640    O    0.41291   0.38478   0.27982   1.000
    O641    O    0.41292   0.88478   0.27982   1.000
    O642    O    0.91291   0.38478   0.27982   1.000
    O643    O    0.91291   0.88478   0.27982   1.000
    O644    O    0.55707   0.20445   0.29889   1.000
    O645    O    0.50205   0.17889   0.31658   1.000
    O646    O    0.05707   0.20445   0.29889   1.000
    O647    O    0.00205   0.17889   0.31655   1.000
    O648    O    0.05708   0.70446   0.29889   1.000
    O649    O    0.00206   0.67890   0.31659   1.000
    O650    O    0.55708   0.70446   0.29890   1.000
    O651    O    0.50205   0.67890   0.31659   1.000
    O652    O    0.10463   0.76267   0.32931   1.000
    O653    O    0.60463   0.76267   0.32931   1.000
    O654    O    0.60462   0.26267   0.32929   1.000
    O655    O    0.10462   0.26267   0.32931   1.000
    O656    O    0.44785   0.86003   0.30417   1.000
    O657    O    0.47517   0.83327   0.32347   1.000
    O658    O    0.94785   0.86003   0.30417   1.000
    O659    O    0.97517   0.83327   0.32347   1.000
    O660    O    0.94784   0.36002   0.30418   1.000
    O661    O    0.97516   0.33327   0.32348   1.000
    O662    O    0.44785   0.36002   0.30418   1.000
    O663    O    0.47517   0.33327   0.32348   1.000
    O664    O    0.96441   0.91984   0.33075   1.000
    O665    O    0.46442   0.91985   0.33075   1.000
    O666    O    0.46441   0.41984   0.33076   1.000
    O667    O    0.96441   0.41984   0.33076   1.000
    O668    O    0.57348   0.45238   0.36504   1.000
    O669    O    0.07349   0.95238   0.36504   1.000
    O670    O    0.57348   0.95238   0.36504   1.000
    O671    O    0.07348   0.45237   0.36505   1.000
    O672    O    0.14825   0.31803   0.35722   1.000
    O673    O    0.17704   0.37351   0.41515   1.000
    O674    O    0.64825   0.31803   0.35721   1.000
    O675    O    0.67703   0.37351   0.41516   1.000
    O676    O    0.14826   0.81803   0.35723   1.000
    O677    O    0.17704   0.87351   0.41516   1.000
    O678    O    0.64825   0.81803   0.35723   1.000
    O679    O    0.67704   0.87351   0.41516   1.000
    O680    O    0.52475   0.96044   0.36645   1.000
    O681    O    0.47411   0.97458   0.37073   1.000
    O682    O    0.02475   0.96044   0.36645   1.000
    O683    O    0.97410   0.97458   0.37076   1.000
    O684    O    0.52475   0.46044   0.36645   1.000
    O685    O    0.47411   0.47458   0.37076   1.000
    O686    O    0.02475   0.46043   0.36645   1.000
    O687    O    0.97410   0.47458   0.37076   1.000
    O688    O    0.59592   0.29637   0.38439   1.000
    O689    O    0.09592   0.29637   0.38441   1.000
    O690    O    0.09593   0.79638   0.38437   1.000
    O691    O    0.59592   0.79638   0.38441   1.000
    O692    O    0.43175   0.49139   0.37885   1.000
    O693    O    0.43176   0.99140   0.37882   1.000
    O694    O    0.93175   0.49139   0.37885   1.000
    O695    O    0.93175   0.99139   0.37885   1.000
    O696    O    0.58487   0.49954   0.39971   1.000
    O697    O    0.58487   0.99954   0.39972   1.000
    O698    O    0.08487   0.99954   0.39971   1.000
    O699    O    0.08487   0.49954   0.39971   1.000
    O700    O    0.48371   0.02828   0.40753   1.000
    O701    O    0.98371   0.02828   0.40755   1.000
    O702    O    0.48371   0.52828   0.40755   1.000
    O703    O    0.98371   0.52828   0.40755   1.000
    O704    O    0.03738   0.77451   0.45534   1.000
    O705    O    0.03738   0.27450   0.45539   1.000
    O706    O    0.53738   0.27451   0.45539   1.000
    O707    O    0.53738   0.77451   0.45539   1.000
    O708    O    0.14687   0.53837   0.43451   1.000
    O709    O    0.09427   0.55281   0.43595   1.000
    O710    O    0.14687   0.03837   0.43451   1.000
    O711    O    0.09427   0.05281   0.43595   1.000
    O712    O    0.64687   0.53837   0.43451   1.000
    O713    O    0.59427   0.55281   0.43595   1.000
    O714    O    0.64687   0.03837   0.43452   1.000
    O715    O    0.59427   0.05281   0.43595   1.000
    O716    O    0.04376   0.06740   0.43948   1.000
    O717    O    0.99285   0.08421   0.44307   1.000
    O718    O    0.04376   0.56740   0.43948   1.000
    O719    O    0.99286   0.58421   0.44307   1.000
    O720    O    0.54375   0.06740   0.43948   1.000
    O721    O    0.49286   0.08421   0.44307   1.000
    O722    O    0.54376   0.56741   0.43948   1.000
    O723    O    0.49286   0.58422   0.44307   1.000
    O724    O    0.69697   0.52414   0.43991   1.000
    O725    O    0.69138   0.45312   0.45385   1.000
    O726    O    0.69697   0.02414   0.43991   1.000
    O727    O    0.69138   0.95312   0.45385   1.000
    O728    O    0.19697   0.52414   0.43991   1.000
    O729    O    0.19138   0.45312   0.45385   1.000
    O730    O    0.19697   0.02414   0.43991   1.000
    O731    O    0.19138   0.95312   0.45385   1.000
    O732    O    0.44466   0.60090   0.44989   1.000
    O733    O    0.36791   0.59394   0.48488   1.000
    O734    O    0.94465   0.10090   0.44989   1.000
    O735    O    0.86790   0.09394   0.48488   1.000
    O736    O    0.94465   0.60090   0.44989   1.000
    O737    O    0.86791   0.59394   0.48488   1.000
    O738    O    0.44465   0.10090   0.44989   1.000
    O739    O    0.36791   0.09394   0.48488   1.000
    O740    O    0.20743   0.07647   0.46221   1.000
    O741    O    0.20744   0.57647   0.46221   1.000
    O742    O    0.70743   0.07647   0.46221   1.000
    O743    O    0.70743   0.57647   0.46221   1.000
    O744    O    0.59871   0.59962   0.46629   1.000
    O745    O    0.59870   0.09962   0.46629   1.000
    O746    O    0.09871   0.59962   0.46629   1.000
    O747    O    0.09871   0.09962   0.46629   1.000
    O748    O    0.50349   0.13844   0.47160   1.000
    O749    O    0.50350   0.63845   0.47162   1.000
    O750    O    0.00349   0.13844   0.47163   1.000
    O751    O    0.00350   0.63845   0.47162   1.000
    O752    O    0.22283   0.39927   0.49774   1.000
    O753    O    0.13211   0.40608   0.51511   1.000
    O754    O    0.72283   0.89927   0.49774   1.000
    O755    O    0.63211   0.90608   0.51511   1.000
    O756    O    0.72283   0.39927   0.49774   1.000
    O757    O    0.63210   0.40608   0.51511   1.000
    O758    O    0.22284   0.89927   0.49774   1.000
    O759    O    0.13211   0.90608   0.51511   1.000
    O760    O    0.77719   0.60076   0.50224   1.000
    O761    O    0.77718   0.10075   0.50224   1.000
    O762    O    0.27719   0.60076   0.50224   1.000
    O763    O    0.27719   0.10075   0.50224   1.000
    O764    O    0.51408   0.20883   0.49354   1.000
    O765    O    0.01408   0.70883   0.49356   1.000
    O766    O    0.51408   0.70883   0.49356   1.000
    O767    O    0.01408   0.20883   0.49357   1.000
    O768    O    0.98593   0.79120   0.50640   1.000
    O769    O    0.96263   0.72552   0.54459   1.000
    O770    O    0.48594   0.79119   0.50641   1.000
    O771    O    0.46264   0.72552   0.54459   1.000
    O772    O    0.48593   0.29119   0.50641   1.000
    O773    O    0.46263   0.22552   0.54459   1.000
    O774    O    0.98593   0.29119   0.50641   1.000
    O775    O    0.96263   0.22552   0.54459   1.000
    O776    O    0.99651   0.36157   0.52836   1.000
    O777    O    0.49651   0.36158   0.52831   1.000
    O778    O    0.49652   0.86158   0.52831   1.000
    O779    O    0.99652   0.86158   0.52835   1.000
    O780    O    0.40131   0.40041   0.53369   1.000
    O781    O    0.40131   0.90041   0.53369   1.000
    O782    O    0.90130   0.40041   0.53369   1.000
    O783    O    0.90131   0.90041   0.53369   1.000
    O784    O    0.29259   0.42356   0.53777   1.000
    O785    O    0.79258   0.42356   0.53777   1.000
    O786    O    0.79258   0.92356   0.53777   1.000
    O787    O    0.29259   0.92356   0.53774   1.000
    O788    O    0.30864   0.04691   0.54613   1.000
    O789    O    0.32298   0.12651   0.58481   1.000
    O790    O    0.80864   0.54691   0.54613   1.000
    O791    O    0.82298   0.62652   0.58481   1.000
    O792    O    0.80864   0.04690   0.54613   1.000
    O793    O    0.82297   0.12651   0.58479   1.000
    O794    O    0.30864   0.54691   0.54613   1.000
    O795    O    0.32298   0.62652   0.58481   1.000
    O796    O    0.55536   0.39911   0.55005   1.000
    O797    O    0.50715   0.41581   0.55686   1.000
    O798    O    0.55536   0.89912   0.55005   1.000
    O799    O    0.50716   0.91581   0.55685   1.000
    O800    O    0.05536   0.89912   0.55009   1.000
    O801    O    0.00716   0.91581   0.55690   1.000
    O802    O    0.05536   0.39911   0.55010   1.000
    O803    O    0.00715   0.41581   0.55690   1.000
    O804    O    0.45626   0.43262   0.56050   1.000
    O805    O    0.40575   0.44722   0.56399   1.000
    O806    O    0.95626   0.93262   0.56050   1.000
    O807    O    0.90575   0.94722   0.56403   1.000
    O808    O    0.95625   0.43262   0.56050   1.000
    O809    O    0.90574   0.44722   0.56403   1.000
    O810    O    0.45626   0.93262   0.56049   1.000
    O811    O    0.40575   0.94722   0.56402   1.000
    O812    O    0.30305   0.97589   0.56005   1.000
    O813    O    0.35315   0.96166   0.56544   1.000
    O814    O    0.80305   0.97589   0.56007   1.000
    O815    O    0.85315   0.96166   0.56547   1.000
    O816    O    0.80304   0.47589   0.56007   1.000
    O817    O    0.85314   0.46166   0.56547   1.000
    O818    O    0.30305   0.47589   0.56007   1.000
    O819    O    0.35315   0.46166   0.56543   1.000
    O820    O    0.51630   0.97175   0.59242   1.000
    O821    O    0.51630   0.47175   0.59243   1.000
    O822    O    0.01630   0.47175   0.59243   1.000
    O823    O    0.01630   0.97175   0.59243   1.000
    O824    O    0.41515   0.50049   0.60022   1.000
    O825    O    0.41515   0.00049   0.60026   1.000
    O826    O    0.91515   0.50049   0.60026   1.000
    O827    O    0.91515   0.00049   0.60024   1.000
    O828    O    0.90410   0.70365   0.61557   1.000
    O829    O    0.40410   0.20365   0.61557   1.000
    O830    O    0.90409   0.20365   0.61557   1.000
    O831    O    0.40410   0.70365   0.61557   1.000
    O832    O    0.56826   0.50863   0.62113   1.000
    O833    O    0.52591   0.52544   0.62921   1.000
    O834    O    0.56826   0.00863   0.62113   1.000
    O835    O    0.52591   0.02544   0.62921   1.000
    O836    O    0.06827   0.50863   0.62113   1.000
    O837    O    0.02592   0.52544   0.62921   1.000
    O838    O    0.06827   0.00863   0.62113   1.000
    O839    O    0.02591   0.02544   0.62922   1.000
    O840    O    0.97527   0.03958   0.63350   1.000
    O841    O    0.92653   0.04764   0.63491   1.000
    O842    O    0.97527   0.53959   0.63352   1.000
    O843    O    0.92654   0.54765   0.63494   1.000
    O844    O    0.47527   0.03959   0.63352   1.000
    O845    O    0.42654   0.04765   0.63494   1.000
    O846    O    0.47527   0.53959   0.63352   1.000
    O847    O    0.42654   0.54765   0.63494   1.000
    O848    O    0.85177   0.68200   0.64274   1.000
    O849    O    0.89539   0.73736   0.67066   1.000
    O850    O    0.35177   0.18199   0.64274   1.000
    O851    O    0.39539   0.23735   0.67067   1.000
    O852    O    0.35177   0.68200   0.64274   1.000
    O853    O    0.39539   0.73736   0.67067   1.000
    O854    O    0.85176   0.18199   0.64272   1.000
    O855    O    0.89538   0.23735   0.67067   1.000
    O856    O    0.03561   0.58018   0.66922   1.000
    O857    O    0.53560   0.08018   0.66920   1.000
    O858    O    0.53561   0.58019   0.66922   1.000
    O859    O    0.03561   0.08018   0.66923   1.000
    O860    O    0.02485   0.16675   0.67647   1.000
    O861    O    0.52485   0.16675   0.67650   1.000
    O862    O    0.02486   0.66676   0.67650   1.000
    O863    O    0.52485   0.66676   0.67650   1.000
    O864    O    0.98901   0.82113   0.68338   1.000
    O865    O    0.49796   0.82113   0.68340   1.000
    O866    O    0.49796   0.32113   0.68340   1.000
    O867    O    0.98901   0.32112   0.68340   1.000
    O868    O    0.55217   0.14000   0.69577   1.000
    O869    O    0.58710   0.11524   0.72013   1.000
    O870    O    0.55217   0.64000   0.69579   1.000
    O871    O    0.58711   0.61525   0.72015   1.000
    O872    O    0.05217   0.64000   0.69579   1.000
    O873    O    0.08711   0.61525   0.72015   1.000
    O874    O    0.05217   0.14000   0.69581   1.000
    O875    O    0.08711   0.11524   0.72016   1.000
    O876    O    0.06509   0.69709   0.72272   1.000
    O877    O    0.56509   0.19708   0.72272   1.000
    O878    O    0.56509   0.69709   0.72272   1.000
    O879    O    0.06509   0.19708   0.72274   1.000
    O880    O    0.44294   0.29557   0.70108   1.000
    O881    O    0.38305   0.27106   0.72530   1.000
    O882    O    0.44294   0.79557   0.70108   1.000
    O883    O    0.38306   0.77107   0.72530   1.000
    O884    O    0.94293   0.29557   0.70108   1.000
    O885    O    0.88305   0.27106   0.72530   1.000
    O886    O    0.94294   0.79557   0.70108   1.000
    O887    O    0.88305   0.77107   0.72530   1.000
    O888    O    0.98758   0.85211   0.72870   1.000
    O889    O    0.48758   0.85211   0.72871   1.000
    O890    O    0.48758   0.35211   0.72871   1.000
    O891    O    0.98757   0.35211   0.72871   1.000
    O892    O    0.12125   0.59728   0.74546   1.000
    O893    O    0.13524   0.64775   0.77130   1.000
    O894    O    0.12124   0.09727   0.74546   1.000
    O895    O    0.13524   0.14774   0.77130   1.000
    O896    O    0.62124   0.09727   0.74546   1.000
    O897    O    0.63524   0.14774   0.77130   1.000
    O898    O    0.62124   0.59728   0.74546   1.000
    O899    O    0.63524   0.64775   0.77130   1.000
    O900    O    0.57889   0.74755   0.74996   1.000
    O901    O    0.61205   0.72890   0.77471   1.000
    O902    O    0.57889   0.24755   0.74997   1.000
    O903    O    0.61204   0.22890   0.77471   1.000
    O904    O    0.07890   0.74755   0.74996   1.000
    O905    O    0.11205   0.72890   0.77471   1.000
    O906    O    0.07889   0.24755   0.74997   1.000
    O907    O    0.11205   0.22890   0.77472   1.000
    O908    O    0.33118   0.75248   0.75006   1.000
    O909    O    0.83118   0.75248   0.75006   1.000
    O910    O    0.83117   0.25248   0.75007   1.000
    O911    O    0.33118   0.25248   0.75007   1.000
    O912    O    0.36792   0.30292   0.77731   1.000
    O913    O    0.86792   0.80292   0.77730   1.000
    O914    O    0.86791   0.30292   0.77731   1.000
    O915    O    0.36792   0.80292   0.77730   1.000
    O916    O    0.02414   0.90256   0.75454   1.000
    O917    O    0.52414   0.90256   0.75455   1.000
    O918    O    0.02414   0.40256   0.75455   1.000
    O919    O    0.52414   0.40256   0.75455   1.000
    O920    O    0.47196   0.88467   0.77986   1.000
    O921    O    0.47196   0.38466   0.77986   1.000
    O922    O    0.97196   0.38466   0.77986   1.000
    O923    O    0.97196   0.88467   0.77986   1.000
    O924    O    0.64726   0.70432   0.79892   1.000
    O925    O    0.67657   0.67868   0.81661   1.000
    O926    O    0.64726   0.20431   0.79893   1.000
    O927    O    0.67656   0.17867   0.81661   1.000
    O928    O    0.14727   0.70432   0.79892   1.000
    O929    O    0.17657   0.67868   0.81661   1.000
    O930    O    0.14726   0.20431   0.79893   1.000
    O931    O    0.17657   0.17867   0.81661   1.000
    O932    O    0.15810   0.76258   0.82932   1.000
    O933    O    0.65810   0.76258   0.82932   1.000
    O934    O    0.65809   0.26257   0.82932   1.000
    O935    O    0.15810   0.26257   0.82932   1.000
    O936    O    0.41219   0.85998   0.80423   1.000
    O937    O    0.35804   0.83329   0.82354   1.000
    O938    O    0.91219   0.85998   0.80423   1.000
    O939    O    0.85804   0.83329   0.82354   1.000
    O940    O    0.41219   0.35998   0.80423   1.000
    O941    O    0.35804   0.33328   0.82355   1.000
    O942    O    0.91218   0.35998   0.80423   1.000
    O943    O    0.85803   0.33328   0.82356   1.000
    O944    O    0.45551   0.41977   0.83078   1.000
    O945    O    0.45551   0.91978   0.83078   1.000
    O946    O    0.95550   0.41977   0.83078   1.000
    O947    O    0.95551   0.91978   0.83078   1.000
    O948    O    0.37898   0.45235   0.86498   1.000
    O949    O    0.37898   0.95235   0.86498   1.000
    O950    O    0.87897   0.45235   0.86498   1.000
    O951    O    0.87898   0.95235   0.86493   1.000
    O952    O    0.17006   0.31801   0.85718   1.000
    O953    O    0.19670   0.37350   0.91511   1.000
    O954    O    0.17006   0.81801   0.85718   1.000
    O955    O    0.19671   0.87351   0.91511   1.000
    O956    O    0.67006   0.31801   0.85718   1.000
    O957    O    0.69670   0.37350   0.91511   1.000
    O958    O    0.67006   0.81801   0.85718   1.000
    O959    O    0.69670   0.87351   0.91511   1.000
    O960    O    0.93577   0.96039   0.86639   1.000
    O961    O    0.00057   0.97452   0.87079   1.000
    O962    O    0.93576   0.46039   0.86644   1.000
    O963    O    0.00056   0.47452   0.87079   1.000
    O964    O    0.43577   0.96039   0.86644   1.000
    O965    O    0.50056   0.97452   0.87079   1.000
    O966    O    0.43577   0.46039   0.86644   1.000
    O967    O    0.50056   0.47452   0.87079   1.000
    O968    O    0.20047   0.29623   0.88442   1.000
    O969    O    0.20047   0.79624   0.88442   1.000
    O970    O    0.70046   0.29623   0.88442   1.000
    O971    O    0.70047   0.79624   0.88442   1.000
    O972    O    0.05973   0.49131   0.87891   1.000
    O973    O    0.05974   0.99132   0.87891   1.000
    O974    O    0.55973   0.49131   0.87891   1.000
    O975    O    0.55973   0.99132   0.87891   1.000
    O976    O    0.91472   0.99950   0.89963   1.000
    O977    O    0.41473   0.49950   0.89967   1.000
    O978    O    0.91472   0.49950   0.89967   1.000
    O979    O    0.41473   0.99950   0.89967   1.000
    O980    O    0.54464   0.02821   0.90759   1.000
    O981    O    0.54464   0.52821   0.90759   1.000
    O982    O    0.04464   0.02821   0.90759   1.000
    O983    O    0.04464   0.52821   0.90759   1.000
    O984    O    0.23708   0.27441   0.95541   1.000
    O985    O    0.73708   0.77441   0.95540   1.000
    O986    O    0.73708   0.27441   0.95541   1.000
    O987    O    0.23708   0.77441   0.95540   1.000
    O988    O    0.89153   0.53833   0.93446   1.000
    O989    O    0.95858   0.55276   0.93592   1.000
    O990    O    0.89152   0.03833   0.93443   1.000
    O991    O    0.95857   0.05275   0.93592   1.000
    O992    O    0.39153   0.53833   0.93446   1.000
    O993    O    0.45858   0.55276   0.93592   1.000
    O994    O    0.39153   0.03833   0.93446   1.000
    O995    O    0.45858   0.05275   0.93593   1.000
    O996    O    0.02369   0.06734   0.93949   1.000
    O997    O    0.09141   0.08417   0.94309   1.000
    O998    O    0.52370   0.56734   0.93949   1.000
    O999    O    0.59141   0.58417   0.94312   1.000
    O1000   O    0.52369   0.06734   0.93949   1.000
    O1001   O    0.59140   0.08417   0.94312   1.000
    O1002   O    0.02370   0.56734   0.93949   1.000
    O1003   O    0.09141   0.58417   0.94312   1.000
    O1004   O    0.32718   0.02411   0.93983   1.000
    O1005   O    0.26176   0.95308   0.95379   1.000
    O1006   O    0.32718   0.52411   0.93986   1.000
    O1007   O    0.26176   0.45308   0.95381   1.000
    O1008   O    0.82718   0.52411   0.93986   1.000
    O1009   O    0.76175   0.45307   0.95381   1.000
    O1010   O    0.82717   0.02410   0.93982   1.000
    O1011   O    0.76175   0.95308   0.95381   1.000
    O1012   O    0.65633   0.60094   0.94995   1.000
    O1013   O    0.65633   0.10093   0.94995   1.000
    O1014   O    0.15634   0.60094   0.94994   1.000
    O1015   O    0.15633   0.10094   0.94992   1.000
    O1016   O    0.86906   0.07644   0.96211   1.000
    O1017   O    0.86906   0.57645   0.96214   1.000
    O1018   O    0.36907   0.57645   0.96214   1.000
    O1019   O    0.36906   0.07644   0.96214   1.000
    O1020   O    0.00094   0.59956   0.96628   1.000
    O1021   O    0.00094   0.09956   0.96628   1.000
    O1022   O    0.50094   0.59956   0.96628   1.000
    O1023   O    0.50094   0.09956   0.96628   1.000
    O1024   O    0.13494   0.13841   0.97165   1.000
    O1025   O    0.13494   0.63841   0.97167   1.000
    O1026   O    0.63493   0.13841   0.97168   1.000
    O1027   O    0.63494   0.63841   0.97168   1.000
    O1028   O    0.19472   0.20880   0.99360   1.000
    O1029   O    0.19473   0.70880   0.99359   1.000
    O1030   O    0.69472   0.20880   0.99360   1.000
    O1031   O    0.69472   0.70881   0.99360   1.000
    O1032   O    0.22711   0.35173   0.94235   1.000
    O1033   O    0.22711   0.85173   0.94235   1.000
    O1034   O    0.72710   0.35173   0.94235   1.000
    O1035   O    0.72711   0.85173   0.94235   1.000
    O1036   O    0.37531   0.14817   0.55764   1.000
    O1037   O    0.37531   0.64817   0.55764   1.000
    O1038   O    0.87530   0.14817   0.55764   1.000
    O1039   O    0.87531   0.64817   0.55764   1.000
    O1040   O    0.27291   0.14829   0.05763   1.000
    O1041   O    0.27291   0.64830   0.05763   1.000
    O1042   O    0.77291   0.14829   0.05763   1.000
    O1043   O    0.77291   0.64829   0.05763   1.000
    O1044   O    0.12471   0.35185   0.44234   1.000
    O1045   O    0.12472   0.85186   0.44230   1.000
    O1046   O    0.62471   0.35185   0.44234   1.000
    O1047   O    0.62471   0.85186   0.44234   1.000
loop_
    _geom_bond_atom_site_label_1
    _geom_bond_atom_site_label_2
    _geom_bond_distance
    _geom_bond_site_symmetry_2
    _ccdc_geom_bond_type
    C465   O472      0.64198      .   S
    C321   O472      0.64198      .   S
    C465   O473      1.08596      .   S
    C17    O473      1.08596  1_556   S
    C466   O474      0.64199      .   S
    C322   O474      0.64199      .   S
    C466   O475      1.08591      .   S
    C18    O475      1.08591      .   S
    C467   O476      0.64199      .   S
    C323   O476      0.64199      .   S
    C467   O477      1.08590      .   S
    C19    O477      1.08590  1_556   S
    C464   O478      0.64200      .   S
    C320   O478      0.64200      .   S
    C464   O479      1.08590      .   S
    C16    O479      1.08590      .   S
    C132   O480      0.54328      .   S
    C370   O480      0.54328      .   S
    C133   O481      0.54355      .   S
    C371   O481      0.54355      .   S
    C135   O482      0.54354      .   S
    C369   O482      0.54354  1_455   S
    C134   O483      0.54350      .   S
    C368   O483      0.54350  1_455   S
    C456   O484      0.63642      .   S
    C372   O484      0.63642      .   S
    C456   O485      1.13332  1_554   S
    C0     O485      1.13332      .   S
    C457   O486      0.63643      .   S
    C373   O486      0.63643      .   S
    C457   O487      1.13332  1_554   S
    C1     O487      1.13332      .   S
    C458   O488      0.63637      .   S
    C374   O488      0.63637      .   S
    C458   O489      1.13332  1_554   S
    C2     O489      1.13332      .   S
    C459   O490      0.63641      .   S
    C375   O490      0.63641      .   S
    C459   O491      1.13333  1_554   S
    C3     O491      1.13333      .   S
    C10    O492      1.12620      .   S
    C463   O492      1.12620  1_565   S
    C10    O493      1.18648      .   S
    C430   O493      1.18648      .   S
    C10    O494      1.14786  1_554   S
    C422   O494      1.14786      .   S
    C10    O495      1.13334      .   S
    C410   O495      1.13334  1_556   S
    C11    O496      1.12647      .   S
    C462   O496      1.12647      .   S
    C11    O497      1.18648      .   S
    C431   O497      1.18648      .   S
    C11    O498      1.14786  1_554   S
    C423   O498      1.14786      .   S
    C11    O499      1.13335      .   S
    C411   O499      1.13335  1_556   S
    C9     O500      1.12648      .   S
    C460   O500      1.12648      .   S
    C9     O501      1.18647      .   S
    C429   O501      1.18647      .   S
    C9     O502      1.14785  1_554   S
    C421   O502      1.14785      .   S
    C9     O503      1.13334      .   S
    C409   O503      1.13334  1_556   S
    C8     O504      1.12640      .   S
    C461   O504      1.12640  1_565   S
    C8     O505      1.18648      .   S
    C428   O505      1.18648      .   S
    C8     O506      1.14786  1_554   S
    C420   O506      1.14786      .   S
    C8     O507      1.13334      .   S
    C408   O507      1.13334  1_556   S
    C323   O508      0.63696      .   S
    C471   O508      0.63696      .   S
    C323   O509      0.74878      .   S
    C351   O509      0.74878      .   S
    C320   O510      0.63694      .   S
    C468   O510      0.63694      .   S
    C320   O511      0.74879      .   S
    C348   O511      0.74879      .   S
    C321   O512      0.63697      .   S
    C469   O512      0.63697      .   S
    C321   O513      0.74864      .   S
    C349   O513      0.74864      .   S
    C322   O514      0.63695      .   S
    C470   O514      0.63695      .   S
    C322   O515      0.74879      .   S
    C350   O515      0.74879      .   S
    C370   O516      0.69942      .   S
    C348   O516      0.69942      .   S
    C370   O517      0.69897      .   S
    C334   O517      0.69897      .   S
    C371   O518      0.69912      .   S
    C349   O518      0.69912      .   S
    C371   O519      0.69882      .   S
    C335   O519      0.69882      .   S
    C369   O520      0.69936  1_455   S
    C351   O520      0.69936      .   S
    C369   O521      0.69880      .   S
    C333   O521      0.69880      .   S
    C368   O522      0.69935  1_455   S
    C350   O522      0.69935      .   S
    C368   O523      0.69881      .   S
    C332   O523      0.69881      .   S
    C374   O524      0.64265      .   S
    C462   O524      0.64265      .   S
    C374   O525      0.74689      .   S
    C334   O525      0.74689      .   S
    C372   O526      0.64265      .   S
    C460   O526      0.64265      .   S
    C372   O527      0.74684      .   S
    C332   O527      0.74684      .   S
    C373   O528      0.64264      .   S
    C461   O528      0.64264      .   S
    C373   O529      0.74684      .   S
    C333   O529      0.74684      .   S
    C375   O530      0.64263      .   S
    C463   O530      0.64263      .   S
    C375   O531      0.74685      .   S
    C335   O531      0.74685      .   S
    C468   O532      1.14788      .   S
    C0     O532      1.14788  1_556   S
    C469   O533      1.14788      .   S
    C1     O533      1.14788  1_556   S
    C470   O534      1.14788      .   S
    C2     O534      1.14788  1_556   S
    C471   O535      1.14787      .   S
    C3     O535      1.14787  1_556   S
    C349   O536      0.70068      .   S
    C344   O536      0.70068  1_545   S
    C348   O537      0.70037      .   S
    C345   O537      0.70037      .   S
    C350   O538      0.70037      .   S
    C347   O538      0.70037      .   S
    C351   O539      0.70001      .   S
    C346   O539      0.70001  1_545   S
    C335   O540      0.69953  1_565   S
    C330   O540      0.69953      .   S
    C334   O541      0.69955      .   S
    C331   O541      0.69955      .   S
    C333   O542      0.69953  1_565   S
    C328   O542      0.69953      .   S
    C332   O543      0.69726      .   S
    C329   O543      0.69726      .   S
    C427   O544      0.65445      .   S
    C307   O544      0.65445      .   S
    C427   O545      1.14597      .   S
    C19    O545      1.14597  1_556   S
    C425   O546      0.65439      .   S
    C305   O546      0.65439      .   S
    C425   O547      1.14602      .   S
    C17    O547      1.14602  1_556   S
    C424   O548      0.65440      .   S
    C304   O548      0.65440      .   S
    C424   O549      1.14596      .   S
    C16    O549      1.14596      .   S
    C426   O550      0.65437      .   S
    C306   O550      0.65437      .   S
    C426   O551      1.14596      .   S
    C18    O551      1.14596      .   S
    C346   O552      0.54490      .   S
    C126   O552      0.54490      .   S
    C346   O553      0.70297      .   S
    C352   O553      0.70297  1_455   S
    C347   O554      0.54476      .   S
    C127   O554      0.54476      .   S
    C347   O555      0.70280      .   S
    C353   O555      0.70280  1_455   S
    C345   O556      0.54476      .   S
    C125   O556      0.54476      .   S
    C345   O557      0.70273      .   S
    C355   O557      0.70273      .   S
    C344   O558      0.54476      .   S
    C124   O558      0.54476      .   S
    C344   O559      0.70271      .   S
    C354   O559      0.70271      .   S
    C329   O560      0.70404      .   S
    C353   O560      0.70404      .   S
    C329   O561      0.54598      .   S
    C117   O561      0.54598      .   S
    C331   O562      0.70291      .   S
    C355   O562      0.70291      .   S
    C331   O563      0.54457      .   S
    C119   O563      0.54457      .   S
    C328   O564      0.70289      .   S
    C352   O564      0.70289      .   S
    C328   O565      0.54457      .   S
    C116   O565      0.54457      .   S
    C330   O566      0.70289      .   S
    C354   O566      0.70289      .   S
    C330   O567      0.54457      .   S
    C118   O567      0.54457      .   S
    C305   O568      0.63058      .   S
    C429   O568      0.63058      .   S
    C305   O569      0.74229      .   S
    C301   O569      0.74229      .   S
    C307   O570      0.63056      .   S
    C431   O570      0.63056      .   S
    C307   O571      0.74226      .   S
    C303   O571      0.74226      .   S
    C304   O572      0.63056      .   S
    C428   O572      0.63056      .   S
    C304   O573      0.74230      .   S
    C300   O573      0.74230      .   S
    C306   O574      0.63058      .   S
    C430   O574      0.63058      .   S
    C306   O575      0.74227      .   S
    C302   O575      0.74227      .   S
    C355   O576      0.74038      .   S
    C343   O576      0.74038      .   S
    C354   O577      0.74041      .   S
    C342   O577      0.74041      .   S
    C353   O578      0.74040      .   S
    C341   O578      0.74040      .   S
    C352   O579      0.74039      .   S
    C340   O579      0.74039      .   S
    C123   O580      0.54459      .   S
    C339   O580      0.54459      .   S
    C121   O581      0.54458      .   S
    C337   O581      0.54458      .   S
    C120   O582      0.54453      .   S
    C336   O582      0.54453      .   S
    C122   O583      0.54458      .   S
    C338   O583      0.54458      .   S
    C80    O584      0.54421      .   S
    C256   O584      0.54421      .   S
    C81    O585      0.54421      .   S
    C257   O585      0.54421      .   S
    C82    O586      0.54418      .   S
    C258   O586      0.54418      .   S
    C83    O587      0.54420      .   S
    C259   O587      0.54420      .   S
    C340   O588      0.70428      .   S
    C336   O588      0.70428      .   S
    C340   O589      0.70361      .   S
    C324   O589      0.70361      .   S
    C341   O590      0.70428      .   S
    C337   O590      0.70428      .   S
    C341   O591      0.70354      .   S
    C325   O591      0.70354      .   S
    C342   O592      0.70427      .   S
    C338   O592      0.70427      .   S
    C342   O593      0.70360      .   S
    C326   O593      0.70360      .   S
    C343   O594      0.70428      .   S
    C339   O594      0.70428      .   S
    C343   O595      0.70356      .   S
    C327   O595      0.70356      .   S
    C336   O596      0.69393      .   S
    C356   O596      0.69393      .   S
    C337   O597      0.69389      .   S
    C357   O597      0.69389      .   S
    C339   O598      0.69389      .   S
    C359   O598      0.69389      .   S
    C338   O599      0.69389      .   S
    C358   O599      0.69389      .   S
    C302   O600      0.70143      .   S
    C258   O600      0.70143      .   S
    C302   O601      0.70235      .   S
    C298   O601      0.70235      .   S
    C303   O602      0.70143      .   S
    C259   O602      0.70143      .   S
    C303   O603      0.70231      .   S
    C299   O603      0.70231      .   S
    C301   O604      0.70143      .   S
    C257   O604      0.70143      .   S
    C301   O605      0.70232      .   S
    C297   O605      0.70232      .   S
    C300   O606      0.70143      .   S
    C256   O606      0.70143      .   S
    C300   O607      0.70231      .   S
    C296   O607      0.70231      .   S
    C259   O608      0.69577      .   S
    C267   O608      0.69577      .   S
    C258   O609      0.69577      .   S
    C266   O609      0.69577      .   S
    C257   O610      0.69577      .   S
    C265   O610      0.69577      .   S
    C256   O611      0.69577      .   S
    C264   O611      0.69577      .   S
    C325   O612      0.54484  1_455   S
    C115   O612      0.54484      .   S
    C325   O613      0.69579      .   S
    C317   O613      0.69579      .   S
    C327   O614      0.54478      .   S
    C113   O614      0.54478      .   S
    C327   O615      0.69579      .   S
    C319   O615      0.69579      .   S
    C324   O616      0.54482  1_455   S
    C114   O616      0.54482      .   S
    C324   O617      0.69570      .   S
    C316   O617      0.69570      .   S
    C326   O618      0.54477      .   S
    C112   O618      0.54477      .   S
    C326   O619      0.69570      .   S
    C318   O619      0.69570      .   S
    C359   O620      0.54427      .   S
    C131   O620      0.54427      .   S
    C359   O621      0.70233      .   S
    C363   O621      0.70233      .   S
    C357   O622      0.54432      .   S
    C129   O622      0.54432      .   S
    C357   O623      0.70229      .   S
    C361   O623      0.70229      .   S
    C356   O624      0.54428      .   S
    C128   O624      0.54428      .   S
    C356   O625      0.70229      .   S
    C360   O625      0.70229      .   S
    C358   O626      0.54427      .   S
    C130   O626      0.54427      .   S
    C358   O627      0.70232      .   S
    C362   O627      0.70232      .   S
    C102   O628      0.54421      .   S
    C298   O628      0.54421      .   S
    C100   O629      0.54426      .   S
    C296   O629      0.54426      .   S
    C101   O630      0.54428      .   S
    C297   O630      0.54428      .   S
    C103   O631      0.54427      .   S
    C299   O631      0.54427      .   S
    C299   O632      0.69396      .   S
    C279   O632      0.69396      .   S
    C297   O633      0.69395      .   S
    C277   O633      0.69395      .   S
    C298   O634      0.69396      .   S
    C278   O634      0.69396      .   S
    C296   O635      0.69396      .   S
    C276   O635      0.69396      .   S
    C85    O636      0.54477      .   S
    C265   O636      0.54477      .   S
    C84    O637      0.54477      .   S
    C264   O637      0.54477      .   S
    C87    O638      0.54478      .   S
    C267   O638      0.54478      .   S
    C86    O639      0.54477      .   S
    C266   O639      0.54477      .   S
    C264   O640      0.70361      .   S
    C280   O640      0.70361      .   S
    C265   O641      0.70354      .   S
    C281   O641      0.70354      .   S
    C266   O642      0.70360      .   S
    C282   O642      0.70360      .   S
    C267   O643      0.70355      .   S
    C283   O643      0.70355      .   S
    C318   O644      0.70142      .   S
    C362   O644      0.70142      .   S
    C318   O645      0.54430      .   S
    C110   O645      0.54430      .   S
    C316   O646      0.70142      .   S
    C360   O646      0.70142      .   S
    C316   O647      0.54395      .   S
    C108   O647      0.54395  1_655   S
    C317   O648      0.70144      .   S
    C361   O648      0.70144      .   S
    C317   O649      0.54423      .   S
    C109   O649      0.54423  1_655   S
    C319   O650      0.70143      .   S
    C363   O650      0.70143      .   S
    C319   O651      0.54423      .   S
    C111   O651      0.54423      .   S
    C361   O652      0.74226      .   S
    C365   O652      0.74226      .   S
    C363   O653      0.74224      .   S
    C367   O653      0.74224      .   S
    C362   O654      0.74201      .   S
    C366   O654      0.74201      .   S
    C360   O655      0.74222      .   S
    C364   O655      0.74222      .   S
    C277   O656      0.70429      .   S
    C281   O656      0.70429      .   S
    C277   O657      0.54464      .   S
    C93    O657      0.54464      .   S
    C279   O658      0.70428      .   S
    C283   O658      0.70428      .   S
    C279   O659      0.54452      .   S
    C95    O659      0.54452      .   S
    C278   O660      0.70429      .   S
    C282   O660      0.70429      .   S
    C278   O661      0.54458      .   S
    C94    O661      0.54458      .   S
    C276   O662      0.70428      .   S
    C280   O662      0.70428      .   S
    C276   O663      0.54458      .   S
    C92    O663      0.54458      .   S
    C283   O664      0.74040      .   S
    C295   O664      0.74040      .   S
    C281   O665      0.74041      .   S
    C293   O665      0.74041      .   S
    C280   O666      0.74041      .   S
    C292   O666      0.74041      .   S
    C282   O667      0.74040      .   S
    C294   O667      0.74040      .   S
    C90    O668      0.54457      .   S
    C270   O668      0.54457      .   S
    C89    O669      0.54457      .   S
    C269   O669      0.54457      .   S
    C91    O670      0.54458      .   S
    C271   O670      0.54458      .   S
    C88    O671      0.54455      .   S
    C268   O671      0.54455      .   S
    C452   O672      0.63056      .   S
    C364   O672      0.63056      .   S
    C452   O673      1.18722      .   S
    C12    O673      1.18722      .   S
    C454   O674      0.63046      .   S
    C366   O674      0.63046      .   S
    C454   O675      1.18708      .   S
    C14    O675      1.18708      .   S
    C453   O676      0.63054      .   S
    C365   O676      0.63054      .   S
    C453   O677      1.18709      .   S
    C13    O677      1.18709      .   S
    C455   O678      0.63053      .   S
    C367   O678      0.63053      .   S
    C455   O679      1.18709      .   S
    C15    O679      1.18709      .   S
    C293   O680      0.70289      .   S
    C271   O680      0.70289      .   S
    C293   O681      0.70261      .   S
    C285   O681      0.70261      .   S
    C295   O682      0.70299  1_655   S
    C269   O682      0.70299      .   S
    C295   O683      0.70272      .   S
    C287   O683      0.70272      .   S
    C292   O684      0.70288      .   S
    C270   O684      0.70288      .   S
    C292   O685      0.70269      .   S
    C284   O685      0.70269      .   S
    C294   O686      0.70296  1_655   S
    C268   O686      0.70296      .   S
    C294   O687      0.70270      .   S
    C286   O687      0.70270      .   S
    C366   O688      0.65476      .   S
    C450   O688      0.65476      .   S
    C364   O689      0.65447      .   S
    C448   O689      0.65447      .   S
    C365   O690      0.65397      .   S
    C449   O690      0.65397      .   S
    C367   O691      0.65448      .   S
    C451   O691      0.65448      .   S
    C96    O692      0.54477      .   S
    C284   O692      0.54477      .   S
    C97    O693      0.54468      .   S
    C285   O693      0.54468      .   S
    C98    O694      0.54477      .   S
    C286   O694      0.54477      .   S
    C99    O695      0.54477      .   S
    C287   O695      0.54477      .   S
    C270   O696      0.69956      .   S
    C275   O696      0.69956      .   S
    C271   O697      0.69952      .   S
    C274   O697      0.69952  1_545   S
    C269   O698      0.69949      .   S
    C272   O698      0.69949  1_545   S
    C268   O699      0.69957      .   S
    C273   O699      0.69957      .   S
    C285   O700      0.70048  1_565   S
    C290   O700      0.70048      .   S
    C287   O701      0.70032  1_565   S
    C288   O701      0.70032  1_455   S
    C284   O702      0.70036      .   S
    C291   O702      0.70036      .   S
    C286   O703      0.70039      .   S
    C289   O703      0.70039  1_455   S
    C449   O704      1.14681      .   S
    C21    O704      1.14681      .   S
    C448   O705      1.14624      .   S
    C20    O705      1.14624      .   S
    C450   O706      1.14625      .   S
    C22    O706      1.14625      .   S
    C451   O707      1.14624      .   S
    C23    O707      1.14624      .   S
    C273   O708      0.74687      .   S
    C313   O708      0.74687      .   S
    C273   O709      0.69888      .   S
    C309   O709      0.69888      .   S
    C272   O710      0.74687      .   S
    C312   O710      0.74687      .   S
    C272   O711      0.69888      .   S
    C308   O711      0.69888      .   S
    C275   O712      0.74688      .   S
    C315   O712      0.74688      .   S
    C275   O713      0.69889      .   S
    C311   O713      0.69889      .   S
    C274   O714      0.74686      .   S
    C314   O714      0.74686      .   S
    C274   O715      0.69887      .   S
    C310   O715      0.69887      .   S
    C288   O716      0.69927      .   S
    C308   O716      0.69927      .   S
    C288   O717      0.74886  1_455   S
    C262   O717      0.74886      .   S
    C289   O718      0.69926      .   S
    C309   O718      0.69926      .   S
    C289   O719      0.74887  1_455   S
    C263   O719      0.74887      .   S
    C290   O720      0.69928      .   S
    C310   O720      0.69928      .   S
    C290   O721      0.74881      .   S
    C260   O721      0.74881      .   S
    C291   O722      0.69928      .   S
    C311   O722      0.69928      .   S
    C291   O723      0.74879      .   S
    C261   O723      0.74879      .   S
    C439   O724      0.64270      .   S
    C315   O724      0.64270      .   S
    C439   O725      1.12646      .   S
    C14    O725      1.12646      .   S
    C438   O726      0.64271      .   S
    C314   O726      0.64271      .   S
    C438   O727      1.12640  1_545   S
    C15    O727      1.12640      .   S
    C437   O728      0.64270      .   S
    C313   O728      0.64270      .   S
    C437   O729      1.12643      .   S
    C12    O729      1.12643      .   S
    C436   O730      0.64271      .   S
    C312   O730      0.64271      .   S
    C436   O731      1.12639  1_545   S
    C13    O731      1.12639      .   S
    C445   O732      0.63690      .   S
    C261   O732      0.63690      .   S
    C445   O733      1.14773      .   S
    C5     O733      1.14773      .   S
    C446   O734      0.63689      .   S
    C262   O734      0.63689      .   S
    C446   O735      1.14772      .   S
    C6     O735      1.14772      .   S
    C447   O736      0.63689      .   S
    C263   O736      0.63689      .   S
    C447   O737      1.14772      .   S
    C7     O737      1.14772      .   S
    C444   O738      0.63689      .   S
    C260   O738      0.63689      .   S
    C444   O739      1.14773      .   S
    C4     O739      1.14773      .   S
    C312   O740      0.63638      .   S
    C432   O740      0.63638      .   S
    C313   O741      0.63639      .   S
    C433   O741      0.63639      .   S
    C314   O742      0.63637      .   S
    C434   O742      0.63637      .   S
    C315   O743      0.63637      .   S
    C435   O743      0.63637      .   S
    C311   O744      0.54355      .   S
    C107   O744      0.54355      .   S
    C310   O745      0.54355      .   S
    C106   O745      0.54355      .   S
    C309   O746      0.54357      .   S
    C105   O746      0.54357      .   S
    C308   O747      0.54356      .   S
    C104   O747      0.54356      .   S
    C260   O748      0.64186      .   S
    C442   O748      0.64186      .   S
    C261   O749      0.64197      .   S
    C443   O749      0.64197      .   S
    C262   O750      0.64203  1_655   S
    C440   O750      0.64203      .   S
    C263   O751      0.64201  1_655   S
    C441   O751      0.64201      .   S
    C12    O752      1.13333      .   S
    C384   O752      1.13333      .   S
    C12    O753      1.14773      .   S
    C396   O753      1.14773      .   S
    C15    O754      1.13333      .   S
    C387   O754      1.13333      .   S
    C15    O755      1.14775      .   S
    C399   O755      1.14775      .   S
    C14    O756      1.13332      .   S
    C386   O756      1.13332      .   S
    C14    O757      1.14774      .   S
    C398   O757      1.14774      .   S
    C13    O758      1.13333      .   S
    C385   O758      1.13333      .   S
    C13    O759      1.14774      .   S
    C397   O759      1.14774      .   S
    C435   O760      1.13333      .   S
    C7     O760      1.13333      .   S
    C434   O761      1.13334      .   S
    C6     O761      1.13334      .   S
    C433   O762      1.13333      .   S
    C5     O762      1.13333      .   S
    C432   O763      1.13334      .   S
    C4     O763      1.13334      .   S
    C442   O764      1.08571      .   S
    C22    O764      1.08571      .   S
    C441   O765      1.08583      .   S
    C21    O765      1.08583      .   S
    C443   O766      1.08572      .   S
    C23    O766      1.08572      .   S
    C440   O767      1.08573      .   S
    C20    O767      1.08573      .   S
    C21    O768      1.08567  1_455   S
    C395   O768      1.08567      .   S
    C21    O769      1.14626  1_455   S
    C403   O769      1.14626      .   S
    C23    O770      1.08573      .   S
    C393   O770      1.08573      .   S
    C23    O771      1.14621      .   S
    C401   O771      1.14621      .   S
    C22    O772      1.08574      .   S
    C392   O772      1.08574      .   S
    C22    O773      1.14622      .   S
    C400   O773      1.14622      .   S
    C20    O774      1.08578  1_455   S
    C394   O774      1.08578      .   S
    C20    O775      1.14625  1_455   S
    C402   O775      1.14625      .   S
    C394   O776      0.64201      .   S
    C140   O776      0.64201  1_455   S
    C392   O777      0.64180      .   S
    C142   O777      0.64180      .   S
    C393   O778      0.64179      .   S
    C143   O778      0.64179      .   S
    C395   O779      0.64198      .   S
    C141   O779      0.64198  1_455   S
    C48    O780      0.54356      .   S
    C188   O780      0.54356      .   S
    C49    O781      0.54355      .   S
    C189   O781      0.54355      .   S
    C50    O782      0.54355      .   S
    C190   O782      0.54355      .   S
    C51    O783      0.54355      .   S
    C191   O783      0.54355      .   S
    C384   O784      0.63639      .   S
    C192   O784      0.63639      .   S
    C386   O785      0.63639      .   S
    C194   O785      0.63639      .   S
    C387   O786      0.63639      .   S
    C195   O786      0.63639      .   S
    C385   O787      0.63624      .   S
    C193   O787      0.63624      .   S
    C4     O788      1.12639      .   S
    C389   O788      1.12639  1_565   S
    C4     O789      1.18701      .   S
    C404   O789      1.18701      .   S
    C7     O790      1.12645      .   S
    C390   O790      1.12645      .   S
    C7     O791      1.18699      .   S
    C407   O791      1.18699      .   S
    C6     O792      1.12639      .   S
    C391   O792      1.12639  1_565   S
    C6     O793      1.18665      .   S
    C406   O793      1.18665      .   S
    C5     O794      1.12644      .   S
    C388   O794      1.12644      .   S
    C5     O795      1.18701      .   S
    C405   O795      1.18701      .   S
    C142   O796      0.63699      .   S
    C398   O796      0.63699      .   S
    C142   O797      0.74894      .   S
    C168   O797      0.74894      .   S
    C143   O798      0.63699      .   S
    C399   O798      0.63699      .   S
    C143   O799      0.74888      .   S
    C169   O799      0.74888      .   S
    C141   O800      0.63690      .   S
    C397   O800      0.63690      .   S
    C141   O801      0.74888      .   S
    C171   O801      0.74888  1_655   S
    C140   O802      0.63690      .   S
    C396   O802      0.63690      .   S
    C140   O803      0.74888      .   S
    C170   O803      0.74888  1_655   S
    C188   O804      0.69927      .   S
    C168   O804      0.69927      .   S
    C188   O805      0.69873      .   S
    C152   O805      0.69873      .   S
    C191   O806      0.69927      .   S
    C171   O806      0.69927      .   S
    C191   O807      0.69888      .   S
    C155   O807      0.69888      .   S
    C190   O808      0.69927      .   S
    C170   O808      0.69927      .   S
    C190   O809      0.69888      .   S
    C154   O809      0.69888      .   S
    C189   O810      0.69923      .   S
    C169   O810      0.69923      .   S
    C189   O811      0.69887      .   S
    C153   O811      0.69887      .   S
    C193   O812      0.64271      .   S
    C389   O812      0.64271      .   S
    C193   O813      0.74697      .   S
    C153   O813      0.74697      .   S
    C195   O814      0.64270      .   S
    C391   O814      0.64270      .   S
    C195   O815      0.74686      .   S
    C155   O815      0.74686      .   S
    C194   O816      0.64270      .   S
    C390   O816      0.64270      .   S
    C194   O817      0.74686      .   S
    C154   O817      0.74686      .   S
    C192   O818      0.64270      .   S
    C388   O818      0.64270      .   S
    C192   O819      0.74669      .   S
    C152   O819      0.74669      .   S
    C169   O820      0.70041      .   S
    C166   O820      0.70041  1_545   S
    C168   O821      0.70036      .   S
    C167   O821      0.70036      .   S
    C170   O822      0.70038  1_655   S
    C165   O822      0.70038      .   S
    C171   O823      0.70032  1_655   S
    C164   O823      0.70032  1_545   S
    C152   O824      0.69987      .   S
    C149   O824      0.69987      .   S
    C153   O825      0.69953  1_565   S
    C148   O825      0.69953      .   S
    C154   O826      0.69955      .   S
    C151   O826      0.69955      .   S
    C155   O827      0.69930  1_565   S
    C150   O827      0.69930      .   S
    C403   O828      0.65442      .   S
    C247   O828      0.65442      .   S
    C400   O829      0.65448      .   S
    C244   O829      0.65448      .   S
    C402   O830      0.65450      .   S
    C246   O830      0.65450      .   S
    C401   O831      0.65449      .   S
    C245   O831      0.65449      .   S
    C167   O832      0.54476      .   S
    C43    O832      0.54476      .   S
    C167   O833      0.70270      .   S
    C175   O833      0.70270      .   S
    C166   O834      0.54476      .   S
    C42    O834      0.54476      .   S
    C166   O835      0.70270      .   S
    C174   O835      0.70270      .   S
    C165   O836      0.54476      .   S
    C41    O836      0.54476      .   S
    C165   O837      0.70269      .   S
    C173   O837      0.70269      .   S
    C164   O838      0.54477      .   S
    C40    O838      0.54477      .   S
    C164   O839      0.70271      .   S
    C172   O839      0.70271      .   S
    C150   O840      0.70308      .   S
    C172   O840      0.70308  1_455   S
    C150   O841      0.54468      .   S
    C34    O841      0.54468      .   S
    C151   O842      0.70297      .   S
    C173   O842      0.70297  1_455   S
    C151   O843      0.54457      .   S
    C35    O843      0.54457      .   S
    C148   O844      0.70289      .   S
    C174   O844      0.70289      .   S
    C148   O845      0.54456      .   S
    C32    O845      0.54456      .   S
    C149   O846      0.70289      .   S
    C175   O846      0.70289      .   S
    C149   O847      0.54456      .   S
    C33    O847      0.54456      .   S
    C247   O848      0.63053      .   S
    C407   O848      0.63053      .   S
    C247   O849      0.74227      .   S
    C243   O849      0.74227      .   S
    C244   O850      0.63053      .   S
    C404   O850      0.63053      .   S
    C244   O851      0.74223      .   S
    C240   O851      0.74223      .   S
    C245   O852      0.63052      .   S
    C405   O852      0.63052      .   S
    C245   O853      0.74223      .   S
    C241   O853      0.74223      .   S
    C246   O854      0.63045      .   S
    C406   O854      0.63045      .   S
    C246   O855      0.74221      .   S
    C242   O855      0.74221      .   S
    C173   O856      0.74042      .   S
    C161   O856      0.74042      .   S
    C174   O857      0.74020      .   S
    C162   O857      0.74020      .   S
    C175   O858      0.74041      .   S
    C163   O858      0.74041      .   S
    C172   O859      0.74041      .   S
    C160   O859      0.74041      .   S
    C36    O860      0.54500      .   S
    C156   O860      0.54500      .   S
    C38    O861      0.54458      .   S
    C158   O861      0.54458      .   S
    C37    O862      0.54458      .   S
    C157   O862      0.54458      .   S
    C39    O863      0.54458      .   S
    C159   O863      0.54458      .   S
    C55    O864      0.42013  1_455   S
    C199   O864      0.42013      .   S
    C53    O865      0.54423      .   S
    C197   O865      0.54423      .   S
    C52    O866      0.54424      .   S
    C196   O866      0.54424      .   S
    C54    O867      0.42017  1_455   S
    C198   O867      0.42017      .   S
    C162   O868      0.70422      .   S
    C158   O868      0.70422      .   S
    C162   O869      0.70389      .   S
    C146   O869      0.70389      .   S
    C163   O870      0.70428      .   S
    C159   O870      0.70428      .   S
    C163   O871      0.70361      .   S
    C147   O871      0.70361      .   S
    C161   O872      0.70428      .   S
    C157   O872      0.70428      .   S
    C161   O873      0.70360      .   S
    C145   O873      0.70360      .   S
    C160   O874      0.70429      .   S
    C156   O874      0.70429      .   S
    C160   O875      0.70355      .   S
    C144   O875      0.70355      .   S
    C157   O876      0.69396      .   S
    C177   O876      0.69396      .   S
    C158   O877      0.69396      .   S
    C178   O877      0.69396      .   S
    C159   O878      0.69396      .   S
    C179   O878      0.69396      .   S
    C156   O879      0.69396      .   S
    C176   O879      0.69396      .   S
    C240   O880      0.70143      .   S
    C196   O880      0.70143      .   S
    C240   O881      0.70229      .   S
    C236   O881      0.70229      .   S
    C241   O882      0.70143      .   S
    C197   O882      0.70143      .   S
    C241   O883      0.70229      .   S
    C237   O883      0.70229      .   S
    C242   O884      0.70142      .   S
    C198   O884      0.70142      .   S
    C242   O885      0.70230      .   S
    C238   O885      0.70230      .   S
    C243   O886      0.70144      .   S
    C199   O886      0.70144      .   S
    C243   O887      0.70231      .   S
    C239   O887      0.70231      .   S
    C199   O888      0.69578      .   S
    C207   O888      0.69578      .   S
    C197   O889      0.69574      .   S
    C205   O889      0.69574      .   S
    C196   O890      0.69574      .   S
    C204   O890      0.69574      .   S
    C198   O891      0.69574      .   S
    C206   O891      0.69574      .   S
    C145   O892      0.54477      .   S
    C29    O892      0.54477      .   S
    C145   O893      0.69576      .   S
    C137   O893      0.69576      .   S
    C144   O894      0.54477      .   S
    C28    O894      0.54477      .   S
    C144   O895      0.69576      .   S
    C136   O895      0.69576      .   S
    C146   O896      0.54477      .   S
    C30    O896      0.54477      .   S
    C146   O897      0.69576      .   S
    C138   O897      0.69576      .   S
    C147   O898      0.54477      .   S
    C31    O898      0.54477      .   S
    C147   O899      0.69576      .   S
    C139   O899      0.69576      .   S
    C179   O900      0.54427      .   S
    C47    O900      0.54427      .   S
    C179   O901      0.70231      .   S
    C183   O901      0.70231      .   S
    C178   O902      0.54427      .   S
    C46    O902      0.54427      .   S
    C178   O903      0.70236      .   S
    C182   O903      0.70236      .   S
    C177   O904      0.54428      .   S
    C45    O904      0.54428      .   S
    C177   O905      0.70231      .   S
    C181   O905      0.70231      .   S
    C176   O906      0.54427      .   S
    C44    O906      0.54427      .   S
    C176   O907      0.70231      .   S
    C180   O907      0.70231      .   S
    C73    O908      0.54427      .   S
    C237   O908      0.54427      .   S
    C75    O909      0.54426      .   S
    C239   O909      0.54426      .   S
    C74    O910      0.54428      .   S
    C238   O910      0.54428      .   S
    C72    O911      0.54427      .   S
    C236   O911      0.54427      .   S
    C236   O912      0.69393      .   S
    C216   O912      0.69393      .   S
    C239   O913      0.69388      .   S
    C219   O913      0.69388      .   S
    C238   O914      0.69393      .   S
    C218   O914      0.69393      .   S
    C237   O915      0.69389      .   S
    C217   O915      0.69389      .   S
    C57    O916      0.54483      .   S
    C207   O916      0.54483  1_655   S
    C59    O917      0.54477      .   S
    C205   O917      0.54477      .   S
    C56    O918      0.54481      .   S
    C206   O918      0.54481  1_655   S
    C58    O919      0.54476      .   S
    C204   O919      0.54476      .   S
    C205   O920      0.70361      .   S
    C221   O920      0.70361      .   S
    C204   O921      0.70360      .   S
    C220   O921      0.70360      .   S
    C206   O922      0.70360      .   S
    C222   O922      0.70360      .   S
    C207   O923      0.70360      .   S
    C223   O923      0.70360      .   S
    C139   O924      0.70143      .   S
    C183   O924      0.70143      .   S
    C139   O925      0.54419      .   S
    C27    O925      0.54419      .   S
    C138   O926      0.70144      .   S
    C182   O926      0.70144      .   S
    C138   O927      0.54419      .   S
    C26    O927      0.54419      .   S
    C137   O928      0.70143      .   S
    C181   O928      0.70143      .   S
    C137   O929      0.54420      .   S
    C25    O929      0.54420      .   S
    C136   O930      0.70144      .   S
    C180   O930      0.70144      .   S
    C136   O931      0.54420      .   S
    C24    O931      0.54420      .   S
    C181   O932      0.74230      .   S
    C185   O932      0.74230      .   S
    C183   O933      0.74231      .   S
    C187   O933      0.74231      .   S
    C182   O934      0.74225      .   S
    C186   O934      0.74225      .   S
    C180   O935      0.74226      .   S
    C184   O935      0.74226      .   S
    C217   O936      0.70427      .   S
    C221   O936      0.70427      .   S
    C217   O937      0.54459      .   S
    C65    O937      0.54459      .   S
    C219   O938      0.70427      .   S
    C223   O938      0.70427      .   S
    C219   O939      0.54458      .   S
    C67    O939      0.54458      .   S
    C216   O940      0.70428      .   S
    C220   O940      0.70428      .   S
    C216   O941      0.54453      .   S
    C64    O941      0.54453      .   S
    C218   O942      0.70428      .   S
    C222   O942      0.70428      .   S
    C218   O943      0.54458      .   S
    C66    O943      0.54458      .   S
    C220   O944      0.74039      .   S
    C232   O944      0.74039      .   S
    C221   O945      0.74037      .   S
    C233   O945      0.74037      .   S
    C222   O946      0.74039      .   S
    C234   O946      0.74039      .   S
    C223   O947      0.74039      .   S
    C235   O947      0.74039      .   S
    C60    O948      0.54458      .   S
    C208   O948      0.54458      .   S
    C61    O949      0.54457      .   S
    C209   O949      0.54457      .   S
    C62    O950      0.54458      .   S
    C210   O950      0.54458      .   S
    C63    O951      0.54436      .   S
    C211   O951      0.54436      .   S
    C380   O952      0.63056      .   S
    C184   O952      0.63056      .   S
    C380   O953      1.18652      .   S
    C0     O953      1.18652      .   S
    C381   O954      0.63057      .   S
    C185   O954      0.63057      .   S
    C381   O955      1.18652      .   S
    C1     O955      1.18652      .   S
    C382   O956      0.63057      .   S
    C186   O956      0.63057      .   S
    C382   O957      1.18652      .   S
    C2     O957      1.18652      .   S
    C383   O958      0.63058      .   S
    C187   O958      0.63058      .   S
    C383   O959      1.18652      .   S
    C3     O959      1.18652      .   S
    C235   O960      0.70274      .   S
    C211   O960      0.70274      .   S
    C235   O961      0.70278  1_655   S
    C225   O961      0.70278      .   S
    C234   O962      0.70291      .   S
    C210   O962      0.70291      .   S
    C234   O963      0.70277  1_655   S
    C224   O963      0.70277      .   S
    C233   O964      0.70290      .   S
    C209   O964      0.70290      .   S
    C233   O965      0.70271      .   S
    C227   O965      0.70271      .   S
    C232   O966      0.70290      .   S
    C208   O966      0.70290      .   S
    C232   O967      0.70271      .   S
    C226   O967      0.70271      .   S
    C184   O968      0.65441      .   S
    C376   O968      0.65441      .   S
    C185   O969      0.65442      .   S
    C377   O969      0.65442      .   S
    C186   O970      0.65441      .   S
    C378   O970      0.65441      .   S
    C187   O971      0.65441      .   S
    C379   O971      0.65441      .   S
    C68    O972      0.54477      .   S
    C224   O972      0.54477      .   S
    C69    O973      0.54476      .   S
    C225   O973      0.54476      .   S
    C70    O974      0.54477      .   S
    C226   O974      0.54477      .   S
    C71    O975      0.54476      .   S
    C227   O975      0.54476      .   S
    C211   O976      0.69985      .   S
    C214   O976      0.69985  1_545   S
    C208   O977      0.69956      .   S
    C213   O977      0.69956      .   S
    C210   O978      0.69954      .   S
    C215   O978      0.69954      .   S
    C209   O979      0.69951      .   S
    C212   O979      0.69951  1_545   S
    C227   O980      0.70035  1_565   S
    C230   O980      0.70035      .   S
    C226   O981      0.70040      .   S
    C231   O981      0.70040      .   S
    C225   O982      0.70035  1_565   S
    C228   O982      0.70035      .   S
    C224   O983      0.70039      .   S
    C229   O983      0.70039      .   S
    C376   O984      1.14606      .   S
    C16    O984      1.14606  1_554   S
    C379   O985      1.14599      .   S
    C19    O985      1.14599      .   S
    C378   O986      1.14607      .   S
    C18    O986      1.14607  1_554   S
    C377   O987      1.14596      .   S
    C17    O987      1.14596      .   S
    C215   O988      0.74686      .   S
    C255   O988      0.74686      .   S
    C215   O989      0.69882      .   S
    C251   O989      0.69882      .   S
    C214   O990      0.74673      .   S
    C254   O990      0.74673      .   S
    C214   O991      0.69881      .   S
    C250   O991      0.69881      .   S
    C213   O992      0.74685      .   S
    C253   O992      0.74685      .   S
    C213   O993      0.69881      .   S
    C249   O993      0.69881      .   S
    C212   O994      0.74684      .   S
    C252   O994      0.74684      .   S
    C212   O995      0.69883      .   S
    C248   O995      0.69883      .   S
    C228   O996      0.69935      .   S
    C250   O996      0.69935  1_655   S
    C228   O997      0.74869      .   S
    C200   O997      0.74869      .   S
    C231   O998      0.69926      .   S
    C249   O998      0.69926      .   S
    C231   O999      0.74879      .   S
    C203   O999      0.74879      .   S
    C230   O1000     0.69927      .   S
    C248   O1000     0.69927      .   S
    C230   O1001     0.74879      .   S
    C202   O1001     0.74879      .   S
    C229   O1002     0.69936      .   S
    C251   O1002     0.69936  1_655   S
    C229   O1003     0.74878      .   S
    C201   O1003     0.74878      .   S
    C412   O1004     0.64267      .   S
    C252   O1004     0.64267      .   S
    C412   O1005     1.12664  1_545   S
    C1     O1005     1.12664      .   S
    C413   O1006     0.64265      .   S
    C253   O1006     0.64265      .   S
    C413   O1007     1.12648      .   S
    C0     O1007     1.12648      .   S
    C415   O1008     0.64265      .   S
    C255   O1008     0.64265      .   S
    C415   O1009     1.12648      .   S
    C2     O1009     1.12648      .   S
    C414   O1010     0.64263      .   S
    C254   O1010     0.64263      .   S
    C414   O1011     1.12641  1_545   S
    C3     O1011     1.12641      .   S
    C423   O1012     0.63695      .   S
    C203   O1012     0.63695      .   S
    C422   O1013     0.63695      .   S
    C202   O1013     0.63695      .   S
    C421   O1014     0.63696      .   S
    C201   O1014     0.63696      .   S
    C420   O1015     0.63689      .   S
    C200   O1015     0.63689      .   S
    C254   O1016     0.63656      .   S
    C410   O1016     0.63656      .   S
    C255   O1017     0.63642      .   S
    C411   O1017     0.63642      .   S
    C253   O1018     0.63643      .   S
    C409   O1018     0.63643      .   S
    C252   O1019     0.63643      .   S
    C408   O1019     0.63643      .   S
    C251   O1020     0.54351  1_655   S
    C77    O1020     0.54351      .   S
    C250   O1021     0.54351  1_655   S
    C76    O1021     0.54351      .   S
    C249   O1022     0.54354      .   S
    C79    O1022     0.54354      .   S
    C248   O1023     0.54354      .   S
    C78    O1023     0.54354      .   S
    C200   O1024     0.64212      .   S
    C416   O1024     0.64212      .   S
    C201   O1025     0.64199      .   S
    C417   O1025     0.64199      .   S
    C202   O1026     0.64198      .   S
    C418   O1026     0.64198      .   S
    C203   O1027     0.64198      .   S
    C419   O1027     0.64198      .   S
    C416   O1028     1.08595      .   S
    C16    O1028     1.08595  1_554   S
    C417   O1029     1.08591      .   S
    C17    O1029     1.08591      .   S
    C418   O1030     1.08595      .   S
    C18    O1030     1.08595  1_554   S
    C419   O1031     1.08595      .   S
    C19    O1031     1.08595      .   S
    C376   O1032     1.21877      .   S
    C0     O1032     1.21877      .   S
    C377   O1033     1.21875      .   S
    C1     O1033     1.21875      .   S
    C378   O1034     1.21877      .   S
    C2     O1034     1.21877      .   S
    C379   O1035     1.21876      .   S
    C3     O1035     1.21876      .   S
    C400   O1036     1.21806      .   S
    C4     O1036     1.21806      .   S
    C401   O1037     1.21807      .   S
    C5     O1037     1.21807      .   S
    C402   O1038     1.21805      .   S
    C6     O1038     1.21805      .   S
    C403   O1039     1.21807      .   S
    C7     O1039     1.21807      .   S
    C424   O1040     1.21881      .   S
    C8     O1040     1.21881      .   S
    C425   O1041     1.21879      .   S
    C9     O1041     1.21879      .   S
    C426   O1042     1.21881      .   S
    C10    O1042     1.21881      .   S
    C427   O1043     1.21879      .   S
    C11    O1043     1.21879      .   S
    C448   O1044     1.21804      .   S
    C12    O1044     1.21804      .   S
    C449   O1045     1.21824      .   S
    C13    O1045     1.21824      .   S
    C450   O1046     1.21802      .   S
    C14    O1046     1.21802      .   S
    C451   O1047     1.21803      .   S
    C15    O1047     1.21803      .   S
