# CIF file generated by openbabel 2.4.90, see http://openbabel.sf.net
data_I
_chemical_name_common ''
_cell_length_a 20.297
_cell_length_b 22.807
_cell_length_c 18.089
_cell_angle_alpha 99.858
_cell_angle_beta 89.934
_cell_angle_gamma 116.458
_space_group_name_H-M_alt 'P 1'
_space_group_name_Hall 'P 1'
loop_
    _symmetry_equiv_pos_as_xyz
    x,y,z
loop_
    _atom_site_label
    _atom_site_type_symbol
    _atom_site_fract_x
    _atom_site_fract_y
    _atom_site_fract_z
    _atom_site_occupancy
    Zr0     Zr   0.23007   0.40465   0.97388   1.000
    Zr1     Zr   0.23007   0.90465   0.97388   1.000
    Zr2     Zr   0.73006   0.40465   0.97388   1.000
    Zr3     Zr   0.73007   0.90465   0.97388   1.000
    Zr4     Zr   0.32535   0.09531   0.52608   1.000
    Zr5     Zr   0.32536   0.59532   0.52608   1.000
    Zr6     Zr   0.82535   0.09531   0.52608   1.000
    Zr7     Zr   0.82535   0.59532   0.52608   1.000
    Zr8     Zr   0.26995   0.09537   0.02610   1.000
    Zr9     Zr   0.26996   0.59538   0.02610   1.000
    Zr10    Zr   0.76995   0.09537   0.02610   1.000
    Zr11    Zr   0.76995   0.59537   0.02610   1.000
    Zr12    Zr   0.17466   0.40471   0.47390   1.000
    Zr13    Zr   0.17467   0.90471   0.47390   1.000
    Zr14    Zr   0.67466   0.40471   0.47390   1.000
    Zr15    Zr   0.67466   0.90471   0.47390   1.000
    Zr16    Zr   0.25001   0.25001   0.00000   1.000
    Zr17    Zr   0.25001   0.75001   0.99998   1.000
    Zr18    Zr   0.75001   0.25001   0.00000   1.000
    Zr19    Zr   0.75001   0.75002   0.99999   1.000
    Zr20    Zr   0.00001   0.25001   0.49999   1.000
    Zr21    Zr   0.00000   0.75001   0.49998   1.000
    Zr22    Zr   0.50001   0.25001   0.49999   1.000
    Zr23    Zr   0.50001   0.75001   0.49999   1.000
    N24     N    0.52554   0.07170   0.66865   1.000
    O25     O    0.41709   0.05930   0.60739   1.000
    O26     O    0.50574   0.93145   0.58753   1.000
    O27     O    0.57882   0.98889   0.59188   1.000
    O28     O    0.61112   0.22260   0.79188   1.000
    O29     O    0.37419   0.98549   0.58320   1.000
    O30     O    0.63131   0.17306   0.81203   1.000
    O31     O    0.62632   0.21171   0.80550   1.000
    N32     N    0.47448   0.42832   0.33132   1.000
    O33     O    0.42119   0.51113   0.40810   1.000
    O34     O    0.58293   0.44072   0.39258   1.000
    O35     O    0.36871   0.32697   0.18795   1.000
    O36     O    0.37369   0.28831   0.19448   1.000
    O37     O    0.49428   0.56858   0.41244   1.000
    O38     O    0.62583   0.51454   0.41678   1.000
    O39     O    0.38890   0.27742   0.20809   1.000
    N40     N    0.54617   0.07176   0.16864   1.000
    O41     O    0.42574   0.93149   0.08751   1.000
    O42     O    0.54177   0.17313   0.31201   1.000
    O43     O    0.58544   0.21181   0.30549   1.000
    O44     O    0.61160   0.22264   0.29190   1.000
    O45     O    0.41005   0.98889   0.09185   1.000
    O46     O    0.61130   0.98551   0.08321   1.000
    O47     O    0.64222   0.05936   0.10740   1.000
    N48     N    0.04617   0.57177   0.16862   1.000
    O49     O    0.14222   0.55936   0.10740   1.000
    O50     O    0.91005   0.48888   0.09184   1.000
    O51     O    0.92573   0.43149   0.08750   1.000
    O52     O    0.11131   0.48551   0.08320   1.000
    O53     O    0.04178   0.67314   0.31198   1.000
    O54     O    0.08544   0.71181   0.30546   1.000
    O55     O    0.11161   0.72264   0.29189   1.000
    N56     N    0.47448   0.92832   0.33131   1.000
    O57     O    0.58293   0.94072   0.39258   1.000
    O58     O    0.36871   0.82697   0.18794   1.000
    O59     O    0.37370   0.78831   0.19447   1.000
    O60     O    0.42119   0.01113   0.40809   1.000
    O61     O    0.49428   0.06858   0.41243   1.000
    O62     O    0.62583   0.01454   0.41678   1.000
    O63     O    0.38890   0.77742   0.20809   1.000
    N64     N    0.45385   0.92826   0.83133   1.000
    O65     O    0.58997   0.01113   0.90812   1.000
    O66     O    0.35780   0.94067   0.89256   1.000
    O67     O    0.38872   0.01452   0.91677   1.000
    O68     O    0.57429   0.06853   0.91246   1.000
    O69     O    0.45824   0.82689   0.68796   1.000
    O70     O    0.41458   0.78822   0.69448   1.000
    O71     O    0.38842   0.77739   0.70807   1.000
    N72     N    0.02554   0.57170   0.66866   1.000
    O73     O    0.12633   0.71172   0.80551   1.000
    O74     O    0.13131   0.67306   0.81203   1.000
    O75     O    0.91709   0.55930   0.60740   1.000
    O76     O    0.00574   0.43145   0.58754   1.000
    O77     O    0.11112   0.72261   0.79189   1.000
    O78     O    0.87419   0.48549   0.58320   1.000
    O79     O    0.07882   0.48889   0.59188   1.000
    N80     N    0.95321   0.92826   0.83132   1.000
    O81     O    0.88839   0.01452   0.91677   1.000
    O82     O    0.88810   0.77739   0.70807   1.000
    O83     O    0.07397   0.06853   0.91246   1.000
    O84     O    0.08965   0.01113   0.90812   1.000
    O85     O    0.95792   0.82689   0.68796   1.000
    O86     O    0.91426   0.78822   0.69448   1.000
    O87     O    0.85748   0.94067   0.89257   1.000
    N88     N    0.45385   0.42826   0.83133   1.000
    O89     O    0.35780   0.44067   0.89257   1.000
    O90     O    0.45824   0.32689   0.68796   1.000
    O91     O    0.41458   0.28821   0.69449   1.000
    O92     O    0.57429   0.56853   0.91246   1.000
    O93     O    0.38872   0.51452   0.91677   1.000
    O94     O    0.58997   0.51114   0.90812   1.000
    O95     O    0.38841   0.27739   0.70807   1.000
    N96     N    0.95321   0.42826   0.83133   1.000
    O97     O    0.85748   0.44067   0.89257   1.000
    O98     O    0.08965   0.51113   0.90812   1.000
    O99     O    0.88809   0.27738   0.70806   1.000
    O100    O    0.07397   0.56853   0.91246   1.000
    O101    O    0.95792   0.32689   0.68796   1.000
    O102    O    0.91425   0.28821   0.69448   1.000
    O103    O    0.88840   0.51452   0.91677   1.000
    N104    N    0.02554   0.07170   0.66866   1.000
    O105    O    0.12633   0.21172   0.80550   1.000
    O106    O    0.13131   0.17306   0.81203   1.000
    O107    O    0.87419   0.98549   0.58320   1.000
    O108    O    0.11112   0.22260   0.79188   1.000
    O109    O    0.91709   0.05930   0.60740   1.000
    O110    O    0.07883   0.98889   0.59188   1.000
    O111    O    0.00574   0.93145   0.58753   1.000
    N112    N    0.52554   0.57170   0.66865   1.000
    O113    O    0.37419   0.48549   0.58320   1.000
    O114    O    0.41709   0.55931   0.60739   1.000
    O115    O    0.50574   0.43145   0.58753   1.000
    O116    O    0.61112   0.72260   0.79188   1.000
    O117    O    0.63131   0.67306   0.81203   1.000
    O118    O    0.62633   0.71172   0.80550   1.000
    O119    O    0.57882   0.48889   0.59188   1.000
    N120    N    0.54617   0.57176   0.16864   1.000
    O121    O    0.61160   0.72264   0.29190   1.000
    O122    O    0.41005   0.48888   0.09185   1.000
    O123    O    0.61130   0.48551   0.08321   1.000
    O124    O    0.54178   0.67314   0.31201   1.000
    O125    O    0.58544   0.71181   0.30549   1.000
    O126    O    0.42574   0.43149   0.08751   1.000
    O127    O    0.64222   0.55936   0.10741   1.000
    N128    N    0.04617   0.07176   0.16864   1.000
    O129    O    0.91005   0.98889   0.09185   1.000
    O130    O    0.92573   0.93149   0.08751   1.000
    O131    O    0.14222   0.05936   0.10741   1.000
    O132    O    0.04177   0.17313   0.31201   1.000
    O133    O    0.08544   0.21181   0.30549   1.000
    O134    O    0.11131   0.98551   0.08321   1.000
    O135    O    0.11160   0.22264   0.29190   1.000
    N136    N    0.97448   0.92832   0.33132   1.000
    O137    O    0.88890   0.77742   0.20809   1.000
    O138    O    0.08293   0.94072   0.39258   1.000
    O139    O    0.92119   0.01113   0.40810   1.000
    O140    O    0.86871   0.82697   0.18795   1.000
    O141    O    0.87369   0.78831   0.19447   1.000
    O142    O    0.99428   0.06858   0.41244   1.000
    O143    O    0.12583   0.01454   0.41678   1.000
    N144    N    0.97448   0.42832   0.33132   1.000
    O145    O    0.08293   0.44072   0.39258   1.000
    O146    O    0.99428   0.56858   0.41244   1.000
    O147    O    0.88890   0.27742   0.20809   1.000
    O148    O    0.92119   0.51113   0.40810   1.000
    O149    O    0.86871   0.32697   0.18795   1.000
    O150    O    0.87369   0.28831   0.19448   1.000
    O151    O    0.12583   0.51454   0.41678   1.000
loop_
    _geom_bond_atom_site_label_1
    _geom_bond_atom_site_label_2
    _geom_bond_distance
    _geom_bond_site_symmetry_2
    _ccdc_geom_bond_type
    N24    O25       2.34454      .   S
    Zr4    O25       2.84393      .   S
    N24    O26       3.12976  1_545   S
    Zr23   O26       4.11969      .   S
    N24    O27       2.75386  1_545   S
    Zr15   O27       3.73367      .   S
    N24    O28       3.44755      .   S
    Zr2    O28       4.50683      .   S
    N24    O29       3.04640  1_545   S
    Zr13   O29       3.97814      .   S
    N24    O30       3.19636      .   S
    Zr18   O30       3.82801  1_554   S
    N24    O31       3.46318      .   S
    Zr2    O31       4.49914      .   S
    N32    O33       2.75388      .   S
    Zr5    O33       3.73373      .   S
    N32    O34       2.34458      .   S
    Zr14   O34       2.84392      .   S
    N32    O35       3.19623      .   S
    Zr16   O35       3.82770      .   S
    N32    O36       3.46315      .   S
    Zr8    O36       4.49913      .   S
    N32    O37       3.12980      .   S
    Zr23   O37       4.11975      .   S
    N32    O38       3.04648      .   S
    Zr7    O38       3.97818      .   S
    N32    O39       3.44753      .   S
    Zr8    O39       4.50680      .   S
    N40    O41       3.12987  1_545   S
    Zr17   O41       4.11992  1_556   S
    N40    O42       3.19518      .   S
    Zr22   O42       3.82509      .   S
    N40    O43       3.46318      .   S
    Zr14   O43       4.49878      .   S
    N40    O44       3.44716      .   S
    Zr14   O44       4.50694      .   S
    N40    O45       2.75527  1_545   S
    Zr1    O45       3.73496  1_556   S
    N40    O46       3.04597  1_545   S
    Zr3    O46       3.97792  1_556   S
    N40    O47       2.34249      .   S
    Zr10   O47       2.84008      .   S
    N48    O49       2.34233      .   S
    Zr9    O49       2.84018      .   S
    N48    O50       2.75528  1_455   S
    Zr2    O50       3.73494  1_556   S
    N48    O51       3.12984  1_455   S
    Zr18   O51       4.11983      .   S
    N48    O52       3.04593      .   S
    Zr0    O52       3.97787  1_556   S
    N48    O53       3.19506      .   S
    Zr21   O53       3.82551      .   S
    N48    O54       3.46308      .   S
    Zr13   O54       4.49907      .   S
    N48    O55       3.44726      .   S
    Zr13   O55       4.50706      .   S
    N56    O57       2.34460      .   S
    Zr15   O57       2.84396      .   S
    N56    O58       3.19629      .   S
    Zr17   O58       3.82787  1_556   S
    N56    O59       3.46312      .   S
    Zr9    O59       4.49907      .   S
    N56    O60       2.75389  1_565   S
    Zr4    O60       3.73376      .   S
    N56    O61       3.12973  1_565   S
    Zr22   O61       4.11978      .   S
    N56    O62       3.04645  1_565   S
    Zr6    O62       3.97815      .   S
    N56    O63       3.44750      .   S
    Zr9    O63       4.50675      .   S
    N64    O65       2.75530  1_565   S
    Zr10   O65       3.73506  1_554   S
    N64    O66       2.34234      .   S
    Zr1    O66       2.84028      .   S
    N64    O67       3.04599  1_565   S
    Zr8    O67       3.97788  1_554   S
    N64    O68       3.12988  1_565   S
    Zr18   O68       4.11996  1_554   S
    N64    O69       3.19512      .   S
    Zr23   O69       3.82502      .   S
    N64    O70       3.46311      .   S
    Zr5    O70       4.49875      .   S
    N64    O71       3.44713      .   S
    Zr5    O71       4.50687      .   S
    N72    O73       3.46317      .   S
    Zr1    O73       4.49912      .   S
    N72    O74       3.19626      .   S
    Zr17   O74       3.82772      .   S
    N72    O75       2.34462  1_455   S
    Zr7    O75       2.84398      .   S
    N72    O76       3.12981      .   S
    Zr20   O76       4.11977      .   S
    N72    O77       3.44754      .   S
    Zr1    O77       4.50681      .   S
    N72    O78       3.04652  1_455   S
    Zr14   O78       3.97825      .   S
    N72    O79       2.75392      .   S
    Zr12   O79       3.73372      .   S
    N80    O81       3.04137  1_565   S
    Zr10   O81       3.97268  1_554   S
    N80    O82       3.44749      .   S
    Zr7    O82       4.50763      .   S
    N80    O83       3.13204  1_665   S
    Zr16   O83       4.12272  1_554   S
    N80    O84       2.75990  1_665   S
    Zr8    O84       3.74000  1_554   S
    N80    O85       3.19735      .   S
    Zr21   O85       3.82777  1_455   S
    N80    O86       3.46424      .   S
    Zr7    O86       4.49892      .   S
    N80    O87       2.33676      .   S
    Zr3    O87       2.83514      .   S
    N88    O89       2.34243      .   S
    Zr0    O89       2.84019      .   S
    N88    O90       3.19513      .   S
    Zr22   O90       3.82502      .   S
    N88    O91       3.46313      .   S
    Zr4    O91       4.49877      .   S
    N88    O92       3.12992      .   S
    Zr19   O92       4.11999      .   S
    N88    O93       3.04600      .   S
    Zr9    O93       3.97788  1_554   S
    N88    O94       2.75534      .   S
    Zr11   O94       3.73509  1_554   S
    N88    O95       3.44715      .   S
    Zr4    O95       4.50688      .   S
    N96    O97       2.33672      .   S
    Zr2    O97       2.83514      .   S
    N96    O98       2.75993  1_655   S
    Zr9    O98       3.74001  1_554   S
    N96    O99       3.44764      .   S
    Zr6    O99       4.50756      .   S
    N96    O100      3.13203  1_655   S
    Zr17   O100      4.12264      .   S
    N96    O101      3.19739      .   S
    Zr20   O101      3.82779  1_455   S
    N96    O102      3.46430      .   S
    Zr6    O102      4.49897      .   S
    N96    O103      3.04135      .   S
    Zr11   O103      3.97265  1_554   S
    N104   O105      3.46316      .   S
    Zr0    O105      4.49913      .   S
    N104   O106      3.19634      .   S
    Zr16   O106      3.82798  1_554   S
    N104   O107      3.04647  1_445   S
    Zr15   O107      3.97821      .   S
    N104   O108      3.44753      .   S
    Zr0    O108      4.50682      .   S
    N104   O109      2.34462  1_455   S
    Zr6    O109      2.84399      .   S
    N104   O110      2.75390  1_545   S
    Zr13   O110      3.73371      .   S
    N104   O111      3.12975  1_545   S
    Zr21   O111      4.11965      .   S
    N112   O113      3.04647      .   S
    Zr12   O113      3.97821      .   S
    N112   O114      2.34455      .   S
    Zr5    O114      2.84392      .   S
    N112   O115      3.12980      .   S
    Zr22   O115      4.11973      .   S
    N112   O116      3.44756      .   S
    Zr3    O116      4.50683      .   S
    N112   O117      3.19633      .   S
    Zr19   O117      3.82789      .   S
    N112   O118      3.46319      .   S
    Zr3    O118      4.49914      .   S
    N112   O119      2.75388      .   S
    Zr14   O119      3.73367      .   S
    N120   O121      3.44716      .   S
    Zr15   O121      4.50695      .   S
    N120   O122      2.75531      .   S
    Zr0    O122      3.73498  1_556   S
    N120   O123      3.04599      .   S
    Zr2    O123      3.97793  1_556   S
    N120   O124      3.19518      .   S
    Zr23   O124      3.82508      .   S
    N120   O125      3.46318      .   S
    Zr15   O125      4.49878      .   S
    N120   O126      3.12987      .   S
    Zr16   O126      4.11983      .   S
    N120   O127      2.34239      .   S
    Zr11   O127      2.84026      .   S
    N128   O129      2.75531  1_445   S
    Zr3    O129      3.73498  1_556   S
    N128   O130      3.12985  1_445   S
    Zr19   O130      4.11983  1_556   S
    N128   O131      2.34243      .   S
    Zr8    O131      2.84026      .   S
    N128   O132      3.19516      .   S
    Zr20   O132      3.82508      .   S
    N128   O133      3.46315      .   S
    Zr12   O133      4.49878      .   S
    N128   O134      3.04600  1_545   S
    Zr1    O134      3.97795  1_556   S
    N128   O135      3.44710      .   S
    Zr12   O135      4.50698      .   S
    N136   O137      3.44751      .   S
    Zr11   O137      4.50678      .   S
    N136   O138      2.34464  1_655   S
    Zr13   O138      2.84398      .   S
    N136   O139      2.75390  1_565   S
    Zr6    O139      3.73376      .   S
    N136   O140      3.19627      .   S
    Zr19   O140      3.82776  1_556   S
    N136   O141      3.46314      .   S
    Zr11   O141      4.49909      .   S
    N136   O142      3.12977  1_565   S
    Zr20   O142      4.11971  1_455   S
    N136   O143      3.04648  1_665   S
    Zr4    O143      3.97820      .   S
    N144   O145      2.34463  1_655   S
    Zr12   O145      2.84394      .   S
    N144   O146      3.12981      .   S
    Zr21   O146      4.11982  1_455   S
    N144   O147      3.44753      .   S
    Zr10   O147      4.50679      .   S
    N144   O148      2.75392      .   S
    Zr7    O148      3.73376      .   S
    N144   O149      3.19622      .   S
    Zr18   O149      3.82770      .   S
    N144   O150      3.46314      .   S
    Zr10   O150      4.49913      .   S
    N144   O151      3.04653  1_655   S
    Zr5    O151      3.97824      .   S
