# CIF file generated by openbabel 2.4.90, see http://openbabel.sf.net
data_I
_chemical_name_common ''
_cell_length_a 10.804
_cell_length_b 10.809
_cell_length_c 18.389
_cell_angle_alpha 73.81
_cell_angle_beta 73.85
_cell_angle_gamma 77.841
_space_group_name_H-M_alt 'P 1'
_space_group_name_Hall 'P 1'
loop_
    _symmetry_equiv_pos_as_xyz
    x,y,z
loop_
    _atom_site_label
    _atom_site_type_symbol
    _atom_site_fract_x
    _atom_site_fract_y
    _atom_site_fract_z
    _atom_site_occupancy
    Y0      Y    0.47280   0.54508   0.89821   1.000
    Y1      Y    0.54500   0.47277   0.39838   1.000
    Y2      Y    0.52779   0.45435   0.10158   1.000
    C3      C    0.31103   0.44498   0.80051   1.000
    C4      C    0.76144   0.45671   0.93978   1.000
    Y5      Y    0.45458   0.52748   0.60151   1.000
    C6      C    0.75968   0.48283   0.46456   1.000
    C7      C    0.55335   0.69026   0.69934   1.000
    C8      C    0.54345   0.23895   0.56002   1.000
    C9      C    0.51746   0.24002   0.03559   1.000
    C10     C    0.68998   0.55366   0.19957   1.000
    C11     C    0.23916   0.54284   0.05994   1.000
    C12     C    0.24001   0.51746   0.53584   1.000
    C13     C    0.44503   0.31130   0.30066   1.000
    C14     C    0.45641   0.76130   0.43970   1.000
    C15     C    0.48364   0.75954   0.96464   1.000
    O16     O    0.35010   0.46739   0.72707   1.000
    O17     O    0.38555   0.43015   0.84657   1.000
    O18     O    0.64799   0.51443   0.50857   1.000
    O19     O    0.68497   0.49893   0.89320   1.000
    O20     O    0.76566   0.44722   0.40325   1.000
    O21     O    0.72380   0.42953   0.01375   1.000
    O22     O    0.53018   0.65107   0.77282   1.000
    O23     O    0.56810   0.61604   0.65319   1.000
    O24     O    0.48720   0.35194   0.99128   1.000
    O25     O    0.50266   0.31542   0.60656   1.000
    O26     O    0.55206   0.23352   0.09732   1.000
    O27     O    0.56935   0.27651   0.48604   1.000
    O28     O    0.65067   0.53068   0.27303   1.000
    O29     O    0.61590   0.56816   0.15334   1.000
    O30     O    0.35205   0.48677   0.49182   1.000
    O31     O    0.31572   0.50092   0.10645   1.000
    O32     O    0.23346   0.55240   0.59744   1.000
    O33     O    0.27664   0.56969   0.00000   1.000
    O34     O    0.46804   0.35017   0.22719   1.000
    O35     O    0.42983   0.38591   0.34668   1.000
    O36     O    0.51424   0.64800   0.00913   1.000
    O37     O    0.49846   0.68496   0.39310   1.000
    O38     O    0.44929   0.76541   0.90293   1.000
    O39     O    0.42946   0.72355   0.51366   1.000
    Og40    Og   0.26400   0.44221   0.81236   1.000
    Og41    Og   0.80893   0.45193   0.92774   1.000
    Og42    Og   0.80077   0.48553   0.47100   1.000
    Og43    Og   0.55646   0.73721   0.68749   1.000
    Og44    Og   0.54816   0.19148   0.57206   1.000
    Og45    Og   0.51464   0.19906   0.02909   1.000
    Og46    Og   0.73695   0.55674   0.18774   1.000
    Og47    Og   0.19169   0.54763   0.07200   1.000
    Og48    Og   0.19904   0.51466   0.52932   1.000
    Og49    Og   0.44214   0.26431   0.31254   1.000
    Og50    Og   0.45167   0.80879   0.42767   1.000
    Og51    Og   0.48625   0.80065   0.97106   1.000
loop_
    _geom_bond_atom_site_label_1
    _geom_bond_atom_site_label_2
    _geom_bond_distance
    _geom_bond_site_symmetry_2
    _ccdc_geom_bond_type
    O33    C11       1.04206      .   S
    O33    Y0        2.42887  1_554   S
    O36    Y2        2.30605      .   S
    O36    C15       1.29025  1_554   S
    O21    Y2        2.29455      .   S
    O21    C4        1.27340  1_554   S
    C9     O26       1.27042      .   S
    C9     O24       1.29073  1_554   S
    C11    O31       1.28090      .   S
    O26    Y2        2.36676      .   S
    Y2     O31       2.22174      .   S
    Y2     O29       2.23067      .   S
    Y2     O34       2.24639      .   S
    O29    C10       1.28024      .   S
    C10    O28       1.26695      .   S
    O34    C13       1.26659      .   S
    O28    Y1        2.24520      .   S
    C13    O35       1.28098      .   S
    O35    Y1        2.23195      .   S
    O37    Y1        2.22251      .   S
    O37    C14       1.28117      .   S
    Y1     O20       2.36554      .   S
    Y1     O27       2.29392      .   S
    Y1     O30       2.31086      .   S
    O20    C6        1.27043      .   S
    C14    O39       1.27333      .   S
    C6     O18       1.29044      .   S
    O27    C8        1.27351      .   S
    O30    C12       1.29085      .   S
    O18    Y5        2.30876      .   S
    O39    Y5        2.29506      .   S
    C12    O32       1.27026      .   S
    C8     O25       1.28095      .   S
    O32    Y5        2.36690      .   S
    Y5     O25       2.22241      .   S
    Y5     O23       2.23031      .   S
    Y5     O16       2.24717      .   S
    O23    C7        1.28045      .   S
    C7     O22       1.26690      .   S
    O16    C3        1.26655      .   S
    O22    Y0        2.24601      .   S
    C3     O17       1.28092      .   S
    O17    Y0        2.23211      .   S
    O19    Y0        2.22226      .   S
    O19    C4        1.28113      .   S
    Y0     O38       2.36473      .   S
    Y0     O24       2.30880      .   S
    O38    C15       1.27038      .   S
    O18    Y1        2.74247      .   S
    O24    Y2        2.73550  1_556   S
    O30    Y5        2.72630      .   S
    O36    Y0        2.75356  1_554   S
    C3     Og40      0.49774      .   S
    C4     Og41      0.49695      .   S
    C6     Og42      0.49860      .   S
    C7     Og43      0.49763      .   S
    C8     Og44      0.49680      .   S
    C9     Og45      0.49841      .   S
    C10    Og46      0.49758      .   S
    C11    Og47      0.49685      .   S
    C12    Og48      0.49836      .   S
    C13    Og49      0.49762      .   S
    C14    Og50      0.49699      .   S
    C15    Og51      0.49858      .   S
