# CIF file generated by openbabel 2.4.90, see http://openbabel.sf.net
data_I
_chemical_name_common ''
_cell_length_a 10.804
_cell_length_b 10.809
_cell_length_c 18.389
_cell_angle_alpha 73.81
_cell_angle_beta 73.85
_cell_angle_gamma 77.841
_space_group_name_H-M_alt 'P 1'
_space_group_name_Hall 'P 1'
loop_
    _symmetry_equiv_pos_as_xyz
    x,y,z
loop_
    _atom_site_label
    _atom_site_type_symbol
    _atom_site_fract_x
    _atom_site_fract_y
    _atom_site_fract_z
    _atom_site_occupancy
    Zr0     Zr   0.45458   0.52748   0.60151   1.000
    Zr1     Zr   0.47280   0.54508   0.89821   1.000
    Zr2     Zr   0.54500   0.47277   0.39838   1.000
    Zr3     Zr   0.52779   0.45435   0.10158   1.000
    N4      N    0.50000   0.00032   0.00001   1.000
    N5      N    0.56190   0.96379   0.63007   1.000
    N6      N    0.96373   0.56183   0.13158   1.000
    N7      N    0.03701   0.43783   0.86977   1.000
    N8      N    0.43747   0.03723   0.36987   1.000
    N9      N    0.00029   0.49982   0.50008   1.000
    C10     C    0.72340   0.46172   0.94891   1.000
    O11     O    0.65114   0.49186   0.92231   1.000
    O12     O    0.82912   0.45270   0.92233   1.000
    O13     O    0.67460   0.45183   0.00329   1.000
    C14     C    0.27517   0.51888   0.54170   1.000
    O15     O    0.18230   0.51271   0.52739   1.000
    O16     O    0.36185   0.49932   0.49340   1.000
    C17     C    0.46144   0.72327   0.44882   1.000
    O18     O    0.45241   0.82908   0.42229   1.000
    O19     O    0.49158   0.65107   0.42228   1.000
    O20     O    0.45173   0.67439   0.50320   1.000
    C21     C    0.48239   0.72431   0.95890   1.000
    O22     O    0.48808   0.81754   0.97302   1.000
    O23     O    0.50170   0.63774   0.00713   1.000
    C24     C    0.55054   0.65246   0.70845   1.000
    O25     O    0.53094   0.61211   0.66790   1.000
    O26     O    0.55525   0.75735   0.68214   1.000
    O27     O    0.52602   0.62527   0.77198   1.000
    C28     C    0.51890   0.27516   0.04140   1.000
    O29     O    0.51276   0.18231   0.02716   1.000
    O30     O    0.49945   0.36184   0.99307   1.000
    C31     C    0.65219   0.55083   0.20865   1.000
    O32     O    0.61202   0.53104   0.16806   1.000
    O33     O    0.75713   0.55544   0.18268   1.000
    O34     O    0.62501   0.52628   0.27218   1.000
    C35     C    0.72444   0.48149   0.45879   1.000
    O36     O    0.63786   0.50122   0.50692   1.000
    O37     O    0.81762   0.48742   0.47297   1.000
    C38     C    0.27717   0.53782   0.05546   1.000
    O39     O    0.32595   0.54760   0.00228   1.000
    O40     O    0.34946   0.50773   0.07974   1.000
    O41     O    0.17151   0.54687   0.08014   1.000
    C42     C    0.44763   0.34913   0.29151   1.000
    O43     O    0.46752   0.38923   0.33202   1.000
    O44     O    0.47277   0.37569   0.22795   1.000
    O45     O    0.44336   0.24408   0.31784   1.000
    C46     C    0.34889   0.44751   0.79138   1.000
    O47     O    0.24382   0.44342   0.81771   1.000
    O48     O    0.37562   0.47247   0.72783   1.000
    O49     O    0.38903   0.46756   0.83189   1.000
    C50     C    0.53849   0.27696   0.55087   1.000
    O51     O    0.54783   0.32580   0.49654   1.000
    O52     O    0.54735   0.17136   0.57748   1.000
    O53     O    0.50855   0.34920   0.57745   1.000
    O54     O    0.32442   0.52120   0.55738   1.000
    O55     O    0.47983   0.67510   0.94301   1.000
    O56     O    0.52131   0.32435   0.05717   1.000
    O57     O    0.67518   0.47915   0.44297   1.000
loop_
    _geom_bond_atom_site_label_1
    _geom_bond_atom_site_label_2
    _geom_bond_distance
    _geom_bond_site_symmetry_2
    _ccdc_geom_bond_type
    C10    O11       0.98558      .   S
    Zr1    O11       2.02631      .   S
    C10    O12       1.10550      .   S
    N7     O12       2.17521  1_455   S
    C10    O13       0.97988  1_556   S
    Zr3    O13       2.04892      .   S
    C14    O15       1.12494      .   S
    N9     O15       2.20046      .   S
    C14    O16       1.12654      .   S
    Zr2    O16       2.27328      .   S
    C17    O18       1.10629      .   S
    N8     O18       2.17755  1_545   S
    C17    O19       0.98500      .   S
    Zr2    O19       2.02556      .   S
    C17    O20       0.98008      .   S
    Zr0    O20       2.04943      .   S
    C21    O22       1.12582      .   S
    N4     O22       2.20355  1_544   S
    C21    O23       1.12410  1_556   S
    Zr3    O23       2.26777      .   S
    C24    O25       1.04842      .   S
    Zr0    O25       2.12345      .   S
    C24    O26       1.10762      .   S
    N5     O26       2.17691      .   S
    C24    O27       1.09113      .   S
    Zr1    O27       2.19437      .   S
    C28    O29       1.12453      .   S
    N4     O29       2.19958      .   S
    C28    O30       1.12618  1_554   S
    Zr1    O30       2.27188      .   S
    C31    O32       1.04865      .   S
    Zr3    O32       2.12394      .   S
    C31    O33       1.10701      .   S
    N6     O33       2.17525      .   S
    C31    O34       1.09112      .   S
    Zr2    O34       2.19403      .   S
    C35    O36       1.12441      .   S
    Zr0    O36       2.26929      .   S
    C35    O37       1.12608      .   S
    N9     O37       2.20395  1_455   S
    C38    O39       0.96141      .   S
    Zr1    O39       2.12191  1_556   S
    C38    O40       0.95973      .   S
    Zr3    O40       2.00976      .   S
    C38    O41       1.09922      .   S
    N6     O41       2.17059  1_655   S
    C42    O43       1.04759      .   S
    Zr2    O43       2.12279      .   S
    C42    O44       1.09154      .   S
    Zr3    O44       2.19515      .   S
    C42    O45       1.10859      .   S
    N8     O45       2.17975      .   S
    C46    O47       1.10836      .   S
    N7     O47       2.17882      .   S
    C46    O48       1.09133      .   S
    Zr0    O48       2.19516      .   S
    C46    O49       1.04841      .   S
    Zr1    O49       2.12410      .   S
    C50    O51       0.97943      .   S
    Zr2    O51       2.04798      .   S
    C50    O52       1.10448      .   S
    N5     O52       2.17258  1_565   S
    C50    O53       0.98579      .   S
    Zr0    O53       2.02668      .   S
    Zr0    O54       1.82921      .   S
    C14    O54       0.67968      .   S
    C21    O55       0.68297      .   S
    Zr1    O55       1.83992      .   S
    Zr3    O56       1.83292      .   S
    C28    O56       0.68080      .   S
    Zr2    O57       1.83551      .   S
    C35    O57       0.68161      .   S
