# CIF file generated by openbabel 2.4.90, see http://openbabel.sf.net
data_I
_chemical_name_common ''
_cell_length_a 10.804
_cell_length_b 10.809
_cell_length_c 18.389
_cell_angle_alpha 73.81
_cell_angle_beta 73.85
_cell_angle_gamma 77.841
_space_group_name_H-M_alt 'P 1'
_space_group_name_Hall 'P 1'
loop_
    _symmetry_equiv_pos_as_xyz
    x,y,z
loop_
    _atom_site_label
    _atom_site_type_symbol
    _atom_site_fract_x
    _atom_site_fract_y
    _atom_site_fract_z
    _atom_site_occupancy
    C0      C    0.45458   0.52748   0.60151   1.000
    C1      C    0.47280   0.54508   0.89821   1.000
    C2      C    0.54500   0.47277   0.39838   1.000
    C3      C    0.52779   0.45435   0.10158   1.000
    C4      C    0.78733   0.56615   0.58581   1.000
    C5      C    0.11573   0.51025   0.72589   1.000
    C6      C    0.00492   0.41727   0.38592   1.000
    C7      C    0.19738   0.36008   0.95289   1.000
    C8      C    0.95868   0.36281   0.01324   1.000
    C9      C    0.87597   0.51756   0.78716   1.000
    C10     C    0.43487   0.21328   0.91374   1.000
    C11     C    0.48999   0.88510   0.77399   1.000
    C12     C    0.58116   0.99618   0.11464   1.000
    C13     C    0.63865   0.80373   0.54698   1.000
    C14     C    0.63691   0.04189   0.48658   1.000
    C15     C    0.48256   0.12451   0.71260   1.000
    C16     C    0.21331   0.43385   0.41441   1.000
    C17     C    0.88506   0.48991   0.27428   1.000
    C18     C    0.99606   0.58180   0.61425   1.000
    C19     C    0.80325   0.63910   0.04729   1.000
    C20     C    0.04166   0.63692   0.00000   1.000
    C21     C    0.12508   0.48196   0.21255   1.000
    C22     C    0.56544   0.78741   0.08638   1.000
    C23     C    0.50983   0.11629   0.22612   1.000
    C24     C    0.41824   0.00497   0.88532   1.000
    C25     C    0.35981   0.19771   0.45309   1.000
    C26     C    0.36277   0.95832   0.51319   1.000
    C27     C    0.51717   0.87606   0.28709   1.000
    C28     C    0.31103   0.44498   0.80051   1.000
    C29     C    0.88294   0.49095   0.48388   1.000
    C30     C    0.90391   0.44237   0.90366   1.000
    C31     C    0.76144   0.45671   0.93978   1.000
    C32     C    0.16994   0.43668   0.83608   1.000
    C33     C    0.75968   0.48283   0.46456   1.000
    C34     C    0.88066   0.53717   0.54851   1.000
    C35     C    0.08010   0.47878   0.78870   1.000
    C36     C    0.00377   0.45363   0.43571   1.000
    C37     C    0.12654   0.39281   0.91697   1.000
    C38     C    0.99412   0.39481   0.95059   1.000
    C39     C    0.94773   0.48210   0.82247   1.000
    C40     C    0.55335   0.69026   0.69934   1.000
    C41     C    0.50901   0.11714   0.01610   1.000
    C42     C    0.55759   0.09654   0.59614   1.000
    C43     C    0.54345   0.23895   0.56002   1.000
    C44     C    0.56267   0.83112   0.66379   1.000
    C45     C    0.51746   0.24002   0.03559   1.000
    C46     C    0.46318   0.11985   0.95120   1.000
    C47     C    0.52135   0.92083   0.71118   1.000
    C48     C    0.54554   0.99699   0.06461   1.000
    C49     C    0.60647   0.87452   0.58289   1.000
    C50     C    0.60503   0.00687   0.54925   1.000
    C51     C    0.51774   0.05278   0.67732   1.000
    C52     C    0.68998   0.55366   0.19957   1.000
    C53     C    0.11712   0.50906   0.51628   1.000
    C54     C    0.09675   0.55721   0.09613   1.000
    C55     C    0.23916   0.54284   0.05994   1.000
    C56     C    0.83088   0.56289   0.16408   1.000
    C57     C    0.24001   0.51746   0.53584   1.000
    C58     C    0.11986   0.46263   0.45165   1.000
    C59     C    0.92070   0.52132   0.21146   1.000
    C60     C    0.99695   0.54568   0.56441   1.000
    C61     C    0.87417   0.60672   0.08317   1.000
    C62     C    0.00654   0.60493   0.04950   1.000
    C63     C    0.05318   0.51732   0.17733   1.000
    C64     C    0.44503   0.31130   0.30066   1.000
    C65     C    0.49148   0.88286   0.98391   1.000
    C66     C    0.44217   0.90378   0.40360   1.000
    C67     C    0.45641   0.76130   0.43970   1.000
    C68     C    0.43635   0.17035   0.33629   1.000
    C69     C    0.48364   0.75954   0.96464   1.000
    C70     C    0.53697   0.88069   0.04884   1.000
    C71     C    0.47824   0.08062   0.28892   1.000
    C72     C    0.45412   0.00381   0.93531   1.000
    C73     C    0.39235   0.12694   0.41718   1.000
    C74     C    0.39398   0.99457   0.45080   1.000
    C75     C    0.48200   0.94770   0.32242   1.000
    C76     C    0.35010   0.46739   0.72707   1.000
    C77     C    0.38555   0.43015   0.84657   1.000
    C78     C    0.64799   0.51443   0.50857   1.000
    C79     C    0.68497   0.49893   0.89320   1.000
    C80     C    0.76566   0.44722   0.40325   1.000
    C81     C    0.72380   0.42953   0.01375   1.000
    C82     C    0.53018   0.65107   0.77282   1.000
    C83     C    0.56810   0.61604   0.65319   1.000
    C84     C    0.48720   0.35194   0.99128   1.000
    C85     C    0.50266   0.31542   0.60656   1.000
    C86     C    0.55206   0.23352   0.09732   1.000
    C87     C    0.56935   0.27651   0.48604   1.000
    C88     C    0.65067   0.53068   0.27303   1.000
    C89     C    0.61590   0.56816   0.15334   1.000
    C90     C    0.35205   0.48677   0.49182   1.000
    C91     C    0.31572   0.50092   0.10645   1.000
    C92     C    0.23346   0.55240   0.59744   1.000
    C93     C    0.27664   0.56969   0.00000   1.000
    C94     C    0.46804   0.35017   0.22719   1.000
    C95     C    0.42983   0.38591   0.34668   1.000
    C96     C    0.51424   0.64800   0.00913   1.000
    C97     C    0.49846   0.68496   0.39310   1.000
    C98     C    0.44929   0.76541   0.90293   1.000
    C99     C    0.42946   0.72355   0.51366   1.000
    O100    O    0.02410   0.62092   0.02475   1.000
    O101    O    0.25790   0.55627   0.02997   1.000
    O102    O    0.37472   0.55738   0.94910   1.000
    O103    O    0.52101   0.55117   0.05536   1.000
    O104    O    0.49894   0.70377   0.98689   1.000
    O105    O    0.97640   0.37881   0.98192   1.000
    O106    O    0.62580   0.44194   0.05767   1.000
    O107    O    0.74262   0.44312   0.97676   1.000
    O108    O    0.51323   0.17858   0.02585   1.000
    O109    O    0.52728   0.05707   0.04036   1.000
    O110    O    0.48610   0.11850   0.98365   1.000
    O111    O    0.53476   0.23677   0.06645   1.000
    O112    O    0.50233   0.29598   0.01344   1.000
    O113    O    0.83871   0.62291   0.06523   1.000
    O114    O    0.54126   0.93884   0.05672   1.000
    O115    O    0.55121   0.83405   0.06761   1.000
    O116    O    0.51423   0.88177   0.01637   1.000
    O117    O    0.94035   0.60582   0.06633   1.000
    O118    O    0.05164   0.58107   0.07282   1.000
    O119    O    0.16795   0.55003   0.07804   1.000
    O120    O    0.27744   0.52188   0.08319   1.000
    O121    O    0.56335   0.99659   0.08962   1.000
    O122    O    0.85252   0.58480   0.12363   1.000
    O123    O    0.07497   0.53727   0.13673   1.000
    O124    O    0.53992   0.34394   0.09945   1.000
    O125    O    0.42176   0.47764   0.10402   1.000
    O126    O    0.57185   0.51125   0.12746   1.000
    O127    O    0.49791   0.40226   0.16439   1.000
    O128    O    0.65294   0.56091   0.17646   1.000
    O129    O    0.76043   0.55828   0.18183   1.000
    O130    O    0.87579   0.54211   0.18777   1.000
    O131    O    0.98694   0.51932   0.19440   1.000
    O132    O    0.08913   0.49964   0.19494   1.000
    O133    O    0.67033   0.54217   0.23630   1.000
    O134    O    0.90288   0.50562   0.24287   1.000
    O135    O    0.49403   0.09845   0.25752   1.000
    O136    O    0.45653   0.33073   0.26393   1.000
    O137    O    0.59784   0.50172   0.33571   1.000
    O138    O    0.49958   0.91188   0.30476   1.000
    O139    O    0.48012   0.01416   0.30567   1.000
    O140    O    0.45729   0.12548   0.31261   1.000
    O141    O    0.44069   0.24082   0.31848   1.000
    O142    O    0.43743   0.34860   0.32367   1.000
    O143    O    0.46208   0.92574   0.36301   1.000
    O144    O    0.41435   0.14864   0.37673   1.000
    O145    O    0.48741   0.42934   0.37253   1.000
    O146    O    0.00434   0.43545   0.41081   1.000
    O147    O    0.52173   0.57886   0.39574   1.000
    O148    O    0.47744   0.72313   0.41640   1.000
    O149    O    0.65533   0.46000   0.40082   1.000
    O150    O    0.55717   0.37464   0.44221   1.000
    O151    O    0.44852   0.47977   0.44510   1.000
    O152    O    0.76267   0.46502   0.43390   1.000
    O153    O    0.44929   0.83254   0.42165   1.000
    O154    O    0.41808   0.94917   0.42720   1.000
    O155    O    0.16658   0.44824   0.43303   1.000
    O156    O    0.39317   0.06075   0.43399   1.000
    O157    O    0.37608   0.16233   0.43513   1.000
    O158    O    0.06182   0.45813   0.44368   1.000
    O159    O    0.94336   0.47229   0.45980   1.000
    O160    O    0.44294   0.74242   0.47668   1.000
    O161    O    0.37838   0.97645   0.48200   1.000
    O162    O    0.11849   0.48585   0.48396   1.000
    O163    O    0.82131   0.48689   0.47422   1.000
    O164    O    0.70383   0.49863   0.48657   1.000
    O165    O    0.88180   0.51406   0.51620   1.000
    O166    O    0.55640   0.25773   0.52303   1.000
    O167    O    0.62097   0.02438   0.51791   1.000
    O168    O    0.29603   0.50211   0.51383   1.000
    O169    O    0.55128   0.52095   0.55504   1.000
    O170    O    0.44202   0.62551   0.55758   1.000
    O171    O    0.17856   0.51326   0.52606   1.000
    O172    O    0.05703   0.52737   0.54034   1.000
    O173    O    0.23674   0.53493   0.56664   1.000
    O174    O    0.62256   0.83913   0.56493   1.000
    O175    O    0.93880   0.54142   0.55646   1.000
    O176    O    0.83399   0.55166   0.56716   1.000
    O177    O    0.60575   0.94069   0.56607   1.000
    O178    O    0.58131   0.05170   0.57270   1.000
    O179    O    0.55052   0.16775   0.57808   1.000
    O180    O    0.52305   0.27718   0.58329   1.000
    O181    O    0.99651   0.56374   0.58933   1.000
    O182    O    0.58457   0.85282   0.62334   1.000
    O183    O    0.53766   0.07466   0.63673   1.000
    O184    O    0.34402   0.53994   0.59947   1.000
    O185    O    0.47862   0.42145   0.60403   1.000
    O186    O    0.51134   0.57176   0.62735   1.000
    O187    O    0.40234   0.49743   0.66429   1.000
    O188    O    0.56072   0.65315   0.67627   1.000
    O189    O    0.55801   0.76069   0.68157   1.000
    O190    O    0.54201   0.87598   0.68749   1.000
    O191    O    0.51954   0.98680   0.69425   1.000
    O192    O    0.50015   0.08864   0.69496   1.000
    O193    O    0.54177   0.67066   0.73608   1.000
    O194    O    0.50567   0.90297   0.74258   1.000
    O195    O    0.09792   0.49452   0.75730   1.000
    O196    O    0.33057   0.45618   0.76379   1.000
    O197    O    0.50149   0.59807   0.83551   1.000
    O198    O    0.91185   0.49983   0.80482   1.000
    O199    O    0.01392   0.48044   0.80558   1.000
    O200    O    0.12502   0.45773   0.81239   1.000
    O201    O    0.24049   0.44083   0.81829   1.000
    O202    O    0.34829   0.43756   0.82354   1.000
    O203    O    0.92582   0.46224   0.86306   1.000
    O204    O    0.14824   0.41475   0.87652   1.000
    O205    O    0.42917   0.48761   0.87239   1.000
    O206    O    0.43618   0.00439   0.91032   1.000
    O207    O    0.57889   0.52200   0.89571   1.000
    O208    O    0.72320   0.47782   0.91649   1.000
    O209    O    0.46104   0.65524   0.90057   1.000
    O210    O    0.48000   0.44851   0.94475   1.000
    O211    O    0.46646   0.76247   0.93378   1.000
    O212    O    0.83267   0.44954   0.92172   1.000
    O213    O    0.94901   0.41859   0.92712   1.000
    O214    O    0.44903   0.16657   0.93247   1.000
    O215    O    0.06033   0.39381   0.93378   1.000
    O216    O    0.16196   0.37645   0.93493   1.000
    O217    O    0.45865   0.06183   0.94326   1.000
    O218    O    0.47280   0.94334   0.95961   1.000
    O219    O    0.48756   0.82120   0.97427   1.000
    O220    O    0.59649   0.49360   0.45348   1.000
    O221    O    0.50749   0.40314   0.04643   1.000
    O222    O    0.40332   0.50712   0.54666   1.000
    O223    O    0.49352   0.59654   0.95367   1.000
loop_
    _geom_bond_atom_site_label_1
    _geom_bond_atom_site_label_2
    _geom_bond_distance
    _geom_bond_site_symmetry_2
    _ccdc_geom_bond_type
    C20    O100      0.44147      .   S
    C62    O100      0.44147      .   S
    C93    O101      0.52103      .   S
    C55    O101      0.52103      .   S
    C93    O102      1.21444  1_554   S
    C1     O102      1.21444      .   S
    C96    O103      1.15303      .   S
    C3     O103      1.15303      .   S
    C96    O104      0.64513  1_554   S
    C69    O104      0.64513      .   S
    C8     O105      0.54355  1_554   S
    C38    O105      0.54355      .   S
    C81    O106      1.14727      .   S
    C3     O106      1.14727      .   S
    C81    O107      0.63670  1_554   S
    C31    O107      0.63670      .   S
    C41    O108      0.74762      .   S
    C45    O108      0.74762      .   S
    C41    O109      0.70212      .   S
    C48    O109      0.70212  1_565   S
    C41    O110      0.70240  1_554   S
    C46    O110      0.70240      .   S
    C45    O111      0.63521      .   S
    C86    O111      0.63521      .   S
    C45    O112      0.64536      .   S
    C84    O112      0.64536  1_556   S
    C19    O113      0.54412      .   S
    C61    O113      0.54412      .   S
    C70    O114      0.69653      .   S
    C48    O114      0.69653      .   S
    C70    O115      0.54477      .   S
    C22    O115      0.54477      .   S
    C70    O116      0.70242      .   S
    C65    O116      0.70242  1_556   S
    C62    O117      0.69491  1_455   S
    C61    O117      0.69491      .   S
    C62    O118      0.69964      .   S
    C54    O118      0.69964      .   S
    C55    O119      0.74527      .   S
    C54    O119      0.74527      .   S
    C55    O120      0.64045      .   S
    C91    O120      0.64045      .   S
    C48    O121      0.54437      .   S
    C12    O121      0.54437      .   S
    C61    O122      0.70180      .   S
    C56    O122      0.70180      .   S
    C54    O123      0.70222      .   S
    C63    O123      0.70222      .   S
    C86    O124      1.18338      .   S
    C3     O124      1.18338      .   S
    C3     O125      1.11087      .   S
    C91    O125      1.11087      .   S
    C3     O126      1.11534      .   S
    C89    O126      1.11534      .   S
    C3     O127      1.12320      .   S
    C94    O127      1.12320      .   S
    C89    O128      0.64012      .   S
    C52    O128      0.64012      .   S
    C56    O129      0.74637      .   S
    C52    O129      0.74637      .   S
    C56    O130      0.70194      .   S
    C59    O130      0.70194      .   S
    C63    O131      0.69532  1_455   S
    C59    O131      0.69532      .   S
    C63    O132      0.54443      .   S
    C21    O132      0.54443      .   S
    C52    O133      0.63347      .   S
    C88    O133      0.63347      .   S
    C59    O134      0.54469      .   S
    C17    O134      0.54469      .   S
    C23    O135      0.54465      .   S
    C71    O135      0.54465      .   S
    C94    O136      0.63330      .   S
    C64    O136      0.63330      .   S
    C88    O137      1.12260      .   S
    C2     O137      1.12260      .   S
    C27    O138      0.54442      .   S
    C75    O138      0.54442      .   S
    C71    O139      0.69659      .   S
    C75    O139      0.69659  1_565   S
    C71    O140      0.70201      .   S
    C68    O140      0.70201      .   S
    C64    O141      0.74643      .   S
    C68    O141      0.74643      .   S
    C64    O142      0.64049      .   S
    C95    O142      0.64049      .   S
    C75    O143      0.70224      .   S
    C66    O143      0.70224      .   S
    C68    O144      0.70174      .   S
    C73    O144      0.70174      .   S
    C95    O145      1.11598      .   S
    C2     O145      1.11598      .   S
    C6     O146      0.54437      .   S
    C36    O146      0.54437      .   S
    C97    O147      1.11125      .   S
    C2     O147      1.11125      .   S
    C97    O148      0.64058      .   S
    C67    O148      0.64058      .   S
    C2     O149      1.18277      .   S
    C80    O149      1.18277      .   S
    C2     O150      1.14696      .   S
    C87    O150      1.14696      .   S
    C2     O151      1.15543      .   S
    C90    O151      1.15543      .   S
    C80    O152      0.63522      .   S
    C33    O152      0.63522      .   S
    C66    O153      0.74549      .   S
    C67    O153      0.74549      .   S
    C66    O154      0.70635      .   S
    C74    O154      0.70635      .   S
    C16    O155      0.54475      .   S
    C58    O155      0.54475      .   S
    C73    O156      0.69495      .   S
    C74    O156      0.69495  1_565   S
    C73    O157      0.54411      .   S
    C25    O157      0.54411      .   S
    C36    O158      0.69645      .   S
    C58    O158      0.69645      .   S
    C36    O159      0.70457  1_455   S
    C29    O159      0.70457      .   S
    C67    O160      0.63667      .   S
    C99    O160      0.63667      .   S
    C74    O161      0.54163      .   S
    C26    O161      0.54163      .   S
    C58    O162      0.70213      .   S
    C53    O162      0.70213      .   S
    C33    O163      0.74790      .   S
    C29    O163      0.74790      .   S
    C33    O164      0.64522      .   S
    C78    O164      0.64522      .   S
    C29    O165      0.70221      .   S
    C34    O165      0.70221      .   S
    C87    O166      0.63675      .   S
    C43    O166      0.63675      .   S
    C14    O167      0.54334      .   S
    C50    O167      0.54334      .   S
    C90    O168      0.64542      .   S
    C57    O168      0.64542      .   S
    C78    O169      1.15438      .   S
    C0     O169      1.15438      .   S
    C99    O170      1.14753      .   S
    C0     O170      1.14753      .   S
    C53    O171      0.74754      .   S
    C57    O171      0.74754      .   S
    C53    O172      0.70094      .   S
    C60    O172      0.70094  1_655   S
    C57    O173      0.63513      .   S
    C92    O173      0.63513      .   S
    C13    O174      0.54412      .   S
    C49    O174      0.54412      .   S
    C34    O175      0.69655      .   S
    C60    O175      0.69655      .   S
    C34    O176      0.54479      .   S
    C4     O176      0.54479      .   S
    C50    O177      0.69497  1_545   S
    C49    O177      0.69497      .   S
    C50    O178      0.69943      .   S
    C42    O178      0.69943      .   S
    C43    O179      0.74520      .   S
    C42    O179      0.74520      .   S
    C43    O180      0.64048      .   S
    C85    O180      0.64048      .   S
    C60    O181      0.54438      .   S
    C18    O181      0.54438      .   S
    C49    O182      0.70180      .   S
    C44    O182      0.70180      .   S
    C42    O183      0.70217      .   S
    C51    O183      0.70217      .   S
    C92    O184      1.18345      .   S
    C0     O184      1.18345      .   S
    C0     O185      1.11120      .   S
    C85    O185      1.11120      .   S
    C0     O186      1.11516      .   S
    C83    O186      1.11516      .   S
    C0     O187      1.12358      .   S
    C76    O187      1.12358      .   S
    C83    O188      0.64023      .   S
    C40    O188      0.64023      .   S
    C44    O189      0.74645      .   S
    C40    O189      0.74645      .   S
    C44    O190      0.70198      .   S
    C47    O190      0.70198      .   S
    C51    O191      0.69247  1_545   S
    C47    O191      0.69247      .   S
    C51    O192      0.54442      .   S
    C15    O192      0.54442      .   S
    C40    O193      0.63345      .   S
    C82    O193      0.63345      .   S
    C47    O194      0.54468      .   S
    C11    O194      0.54468      .   S
    C5     O195      0.54465      .   S
    C35    O195      0.54465      .   S
    C76    O196      0.63327      .   S
    C28    O196      0.63327      .   S
    C82    O197      1.12300      .   S
    C1     O197      1.12300      .   S
    C9     O198      0.54442      .   S
    C39    O198      0.54442      .   S
    C35    O199      0.69446      .   S
    C39    O199      0.69446  1_655   S
    C35    O200      0.70205      .   S
    C32    O200      0.70205      .   S
    C28    O201      0.74661      .   S
    C32    O201      0.74661      .   S
    C28    O202      0.64046      .   S
    C77    O202      0.64046      .   S
    C39    O203      0.70224      .   S
    C30    O203      0.70224      .   S
    C32    O204      0.70173      .   S
    C37    O204      0.70173      .   S
    C77    O205      1.11606      .   S
    C1     O205      1.11606      .   S
    C24    O206      0.54438      .   S
    C72    O206      0.54438      .   S
    C79    O207      1.11113      .   S
    C1     O207      1.11113      .   S
    C79    O208      0.64057      .   S
    C31    O208      0.64057      .   S
    C1     O209      1.18237      .   S
    C98    O209      1.18237      .   S
    C1     O210      1.15440      .   S
    C84    O210      1.15440      .   S
    C98    O211      0.63519      .   S
    C69    O211      0.63519      .   S
    C30    O212      0.74543      .   S
    C31    O212      0.74543      .   S
    C30    O213      0.70150      .   S
    C38    O213      0.70150      .   S
    C10    O214      0.54475      .   S
    C46    O214      0.54475      .   S
    C37    O215      0.69494      .   S
    C38    O215      0.69494  1_655   S
    C37    O216      0.54412      .   S
    C7     O216      0.54412      .   S
    C72    O217      0.69647      .   S
    C46    O217      0.69647      .   S
    C72    O218      0.70664  1_545   S
    C65    O218      0.70664      .   S
    C69    O219      0.74787      .   S
    C65    O219      0.74787      .   S
    C78    O220      1.37123      .   S
    C2     O220      1.37123      .   S
    C84    O221      1.36775  1_556   S
    C3     O221      1.36775      .   S
    C90    O222      1.36315      .   S
    C0     O222      1.36315      .   S
    C96    O223      1.37678  1_554   S
    C1     O223      1.37678      .   S
