# CIF file generated by openbabel 2.4.90, see http://openbabel.sf.net
data_I
_chemical_name_common ''
_cell_length_a 10.804
_cell_length_b 10.809
_cell_length_c 18.389
_cell_angle_alpha 73.81
_cell_angle_beta 73.85
_cell_angle_gamma 77.841
_space_group_name_H-M_alt 'P 1'
_space_group_name_Hall 'P 1'
loop_
    _symmetry_equiv_pos_as_xyz
    x,y,z
loop_
    _atom_site_label
    _atom_site_type_symbol
    _atom_site_fract_x
    _atom_site_fract_y
    _atom_site_fract_z
    _atom_site_occupancy
    Zr0     Zr   0.45458   0.52748   0.60151   1.000
    Zr1     Zr   0.47280   0.54508   0.89821   1.000
    Zr2     Zr   0.54500   0.47277   0.39838   1.000
    Zr3     Zr   0.52779   0.45435   0.10158   1.000
    Zr4     Zr   0.31103   0.44498   0.80051   1.000
    Zr5     Zr   0.76144   0.45671   0.93978   1.000
    Zr6     Zr   0.75968   0.48283   0.46456   1.000
    Zr7     Zr   0.55335   0.69026   0.69934   1.000
    Zr8     Zr   0.54345   0.23895   0.56002   1.000
    Zr9     Zr   0.51746   0.24002   0.03559   1.000
    Zr10    Zr   0.68998   0.55366   0.19957   1.000
    Zr11    Zr   0.23916   0.54284   0.05994   1.000
    Zr12    Zr   0.24001   0.51746   0.53584   1.000
    Zr13    Zr   0.44503   0.31130   0.30066   1.000
    Zr14    Zr   0.45641   0.76130   0.43970   1.000
    Zr15    Zr   0.48364   0.75954   0.96464   1.000
    Zr16    Zr   0.35010   0.46739   0.72707   1.000
    Zr17    Zr   0.38555   0.43015   0.84657   1.000
    Zr18    Zr   0.64799   0.51443   0.50857   1.000
    Zr19    Zr   0.68497   0.49893   0.89320   1.000
    Zr20    Zr   0.76566   0.44722   0.40325   1.000
    Zr21    Zr   0.72380   0.42953   0.01375   1.000
    Zr22    Zr   0.53018   0.65107   0.77282   1.000
    Zr23    Zr   0.56810   0.61604   0.65319   1.000
    Zr24    Zr   0.48720   0.35194   0.99128   1.000
    Zr25    Zr   0.50266   0.31542   0.60656   1.000
    Zr26    Zr   0.55206   0.23352   0.09732   1.000
    Zr27    Zr   0.56935   0.27651   0.48604   1.000
    Zr28    Zr   0.65067   0.53068   0.27303   1.000
    Zr29    Zr   0.61590   0.56816   0.15334   1.000
    Zr30    Zr   0.35205   0.48677   0.49182   1.000
    Zr31    Zr   0.31572   0.50092   0.10645   1.000
    Zr32    Zr   0.23346   0.55240   0.59744   1.000
    Zr33    Zr   0.27664   0.56969   0.00000   1.000
    Zr34    Zr   0.46804   0.35017   0.22719   1.000
    Zr35    Zr   0.42983   0.38591   0.34668   1.000
    Zr36    Zr   0.51424   0.64800   0.00913   1.000
    Zr37    Zr   0.49846   0.68496   0.39310   1.000
    Zr38    Zr   0.44929   0.76541   0.90293   1.000
    Zr39    Zr   0.42946   0.72355   0.51366   1.000
    O40     O    0.25790   0.55627   0.02997   1.000
    O41     O    0.37472   0.55738   0.94910   1.000
    O42     O    0.52101   0.55117   0.05536   1.000
    O43     O    0.49894   0.70377   0.98689   1.000
    O44     O    0.62580   0.44194   0.05767   1.000
    O45     O    0.74262   0.44312   0.97676   1.000
    O46     O    0.53476   0.23677   0.06645   1.000
    O47     O    0.50233   0.29598   0.01344   1.000
    O48     O    0.27744   0.52188   0.08319   1.000
    O49     O    0.53992   0.34394   0.09945   1.000
    O50     O    0.42176   0.47764   0.10402   1.000
    O51     O    0.57185   0.51125   0.12746   1.000
    O52     O    0.49791   0.40226   0.16439   1.000
    O53     O    0.65294   0.56091   0.17646   1.000
    O54     O    0.67033   0.54217   0.23630   1.000
    O55     O    0.45653   0.33073   0.26393   1.000
    O56     O    0.59784   0.50172   0.33571   1.000
    O57     O    0.43743   0.34860   0.32367   1.000
    O58     O    0.48741   0.42934   0.37253   1.000
    O59     O    0.52173   0.57886   0.39574   1.000
    O60     O    0.47744   0.72313   0.41640   1.000
    O61     O    0.65533   0.46000   0.40082   1.000
    O62     O    0.55717   0.37464   0.44221   1.000
    O63     O    0.44852   0.47977   0.44510   1.000
    O64     O    0.76267   0.46502   0.43390   1.000
    O65     O    0.44294   0.74242   0.47668   1.000
    O66     O    0.70383   0.49863   0.48657   1.000
    O67     O    0.55640   0.25773   0.52303   1.000
    O68     O    0.29603   0.50211   0.51383   1.000
    O69     O    0.55128   0.52095   0.55504   1.000
    O70     O    0.44202   0.62551   0.55758   1.000
    O71     O    0.23674   0.53493   0.56664   1.000
    O72     O    0.52305   0.27718   0.58329   1.000
    O73     O    0.34402   0.53994   0.59947   1.000
    O74     O    0.47862   0.42145   0.60403   1.000
    O75     O    0.51134   0.57176   0.62735   1.000
    O76     O    0.40234   0.49743   0.66429   1.000
    O77     O    0.56072   0.65315   0.67627   1.000
    O78     O    0.54177   0.67066   0.73608   1.000
    O79     O    0.33057   0.45618   0.76379   1.000
    O80     O    0.50149   0.59807   0.83551   1.000
    O81     O    0.34829   0.43756   0.82354   1.000
    O82     O    0.42917   0.48761   0.87239   1.000
    O83     O    0.57889   0.52200   0.89571   1.000
    O84     O    0.72320   0.47782   0.91649   1.000
    O85     O    0.46104   0.65524   0.90057   1.000
    O86     O    0.48000   0.44851   0.94475   1.000
    O87     O    0.46646   0.76247   0.93378   1.000
    O88     O    0.59649   0.49360   0.45348   1.000
    O89     O    0.50749   0.40314   0.04643   1.000
    O90     O    0.40332   0.50712   0.54666   1.000
    O91     O    0.49352   0.59654   0.95367   1.000
    N92     N    0.50000   0.00032   0.00001   1.000
    O93     O    0.50662   0.08945   0.01293   1.000
    O94     O    0.49378   0.91076   0.98714   1.000
    N95     N    0.56190   0.96379   0.63007   1.000
    O96     O    0.55621   0.06577   0.60408   1.000
    O97     O    0.55995   0.86224   0.65582   1.000
    N98     N    0.96373   0.56183   0.13158   1.000
    O99     O    0.06584   0.55593   0.10481   1.000
    O100    O    0.86208   0.56005   0.15670   1.000
    N101    N    0.03701   0.43783   0.86977   1.000
    O102    O    0.93484   0.44368   0.89574   1.000
    O103    O    0.13875   0.43933   0.84403   1.000
    N104    N    0.43747   0.03723   0.36987   1.000
    O105    O    0.43908   0.13903   0.34417   1.000
    O106    O    0.44338   0.93488   0.39576   1.000
    N107    N    0.00029   0.49982   0.50008   1.000
    O108    O    0.08943   0.50654   0.51307   1.000
    O109    O    0.91080   0.49335   0.48715   1.000
loop_
    _geom_bond_atom_site_label_1
    _geom_bond_atom_site_label_2
    _geom_bond_distance
    _geom_bond_site_symmetry_2
    _ccdc_geom_bond_type
    Zr33   O40       0.52103      .   S
    Zr11   O40       0.52103      .   S
    Zr33   O41       1.21444  1_554   S
    Zr1    O41       1.21444      .   S
    Zr36   O42       1.15303      .   S
    Zr3    O42       1.15303      .   S
    Zr36   O43       0.64513  1_554   S
    Zr15   O43       0.64513      .   S
    Zr21   O44       1.14727      .   S
    Zr3    O44       1.14727      .   S
    Zr21   O45       0.63670  1_554   S
    Zr5    O45       0.63670      .   S
    Zr9    O46       0.63521      .   S
    Zr26   O46       0.63521      .   S
    Zr9    O47       0.64536      .   S
    Zr24   O47       0.64536  1_556   S
    Zr11   O48       0.64045      .   S
    Zr31   O48       0.64045      .   S
    Zr26   O49       1.18338      .   S
    Zr3    O49       1.18338      .   S
    Zr3    O50       1.11087      .   S
    Zr31   O50       1.11087      .   S
    Zr3    O51       1.11534      .   S
    Zr29   O51       1.11534      .   S
    Zr3    O52       1.12320      .   S
    Zr34   O52       1.12320      .   S
    Zr29   O53       0.64012      .   S
    Zr10   O53       0.64012      .   S
    Zr10   O54       0.63347      .   S
    Zr28   O54       0.63347      .   S
    Zr34   O55       0.63330      .   S
    Zr13   O55       0.63330      .   S
    Zr28   O56       1.12260      .   S
    Zr2    O56       1.12260      .   S
    Zr13   O57       0.64049      .   S
    Zr35   O57       0.64049      .   S
    Zr35   O58       1.11598      .   S
    Zr2    O58       1.11598      .   S
    Zr37   O59       1.11125      .   S
    Zr2    O59       1.11125      .   S
    Zr37   O60       0.64058      .   S
    Zr14   O60       0.64058      .   S
    Zr2    O61       1.18277      .   S
    Zr20   O61       1.18277      .   S
    Zr2    O62       1.14696      .   S
    Zr27   O62       1.14696      .   S
    Zr2    O63       1.15543      .   S
    Zr30   O63       1.15543      .   S
    Zr20   O64       0.63522      .   S
    Zr6    O64       0.63522      .   S
    Zr14   O65       0.63667      .   S
    Zr39   O65       0.63667      .   S
    Zr6    O66       0.64522      .   S
    Zr18   O66       0.64522      .   S
    Zr27   O67       0.63675      .   S
    Zr8    O67       0.63675      .   S
    Zr30   O68       0.64542      .   S
    Zr12   O68       0.64542      .   S
    Zr18   O69       1.15438      .   S
    Zr0    O69       1.15438      .   S
    Zr39   O70       1.14753      .   S
    Zr0    O70       1.14753      .   S
    Zr12   O71       0.63513      .   S
    Zr32   O71       0.63513      .   S
    Zr8    O72       0.64048      .   S
    Zr25   O72       0.64048      .   S
    Zr32   O73       1.18345      .   S
    Zr0    O73       1.18345      .   S
    Zr0    O74       1.11120      .   S
    Zr25   O74       1.11120      .   S
    Zr0    O75       1.11516      .   S
    Zr23   O75       1.11516      .   S
    Zr0    O76       1.12358      .   S
    Zr16   O76       1.12358      .   S
    Zr23   O77       0.64023      .   S
    Zr7    O77       0.64023      .   S
    Zr7    O78       0.63345      .   S
    Zr22   O78       0.63345      .   S
    Zr16   O79       0.63327      .   S
    Zr4    O79       0.63327      .   S
    Zr22   O80       1.12300      .   S
    Zr1    O80       1.12300      .   S
    Zr4    O81       0.64046      .   S
    Zr17   O81       0.64046      .   S
    Zr17   O82       1.11606      .   S
    Zr1    O82       1.11606      .   S
    Zr19   O83       1.11113      .   S
    Zr1    O83       1.11113      .   S
    Zr19   O84       0.64057      .   S
    Zr5    O84       0.64057      .   S
    Zr1    O85       1.18237      .   S
    Zr38   O85       1.18237      .   S
    Zr1    O86       1.15440      .   S
    Zr24   O86       1.15440      .   S
    Zr38   O87       0.63519      .   S
    Zr15   O87       0.63519      .   S
    Zr18   O88       1.37123      .   S
    Zr2    O88       1.37123      .   S
    Zr24   O89       1.36775  1_556   S
    Zr3    O89       1.36775      .   S
    Zr30   O90       1.36315      .   S
    Zr0    O90       1.36315      .   S
    Zr36   O91       1.37678  1_554   S
    Zr1    O91       1.37678      .   S
    N92    O93       1.07509      .   S
    Zr9    O93       1.82263      .   S
    N92    O94       1.07777  1_544   S
    Zr15   O94       1.82558      .   S
    N95    O96       1.06831  1_565   S
    Zr8    O96       1.81308      .   S
    N95    O97       1.06950      .   S
    Zr7    O97       1.81543      .   S
    N98    O99       1.07204  1_655   S
    Zr11   O99       1.81691      .   S
    N98    O100      1.06844      .   S
    Zr10   O100      1.81433      .   S
    N101   O102      1.06992  1_455   S
    Zr5    O102      1.81492      .   S
    N101   O103      1.07064      .   S
    Zr4    O103      1.81681      .   S
    N104   O105      1.07135      .   S
    Zr13   O105      1.81732      .   S
    N104   O106      1.07147  1_545   S
    Zr14   O106      1.81654      .   S
    N107   O108      1.07557      .   S
    Zr12   O108      1.82304      .   S
    N107   O109      1.07791  1_455   S
    Zr6    O109      1.82575      .   S
