# CIF file generated by openbabel 2.4.90, see http://openbabel.sf.net
data_I
_chemical_name_common 'VESTA_phase_1'
_cell_length_a 14.01
_cell_length_b 16.787
_cell_length_c 16.818
_cell_angle_alpha 103.804
_cell_angle_beta 109.775
_cell_angle_gamma 109.721
_space_group_name_H-M_alt 'P 1'
_space_group_name_Hall 'P 1'
loop_
    _symmetry_equiv_pos_as_xyz
    x,y,z
loop_
    _atom_site_label
    _atom_site_type_symbol
    _atom_site_fract_x
    _atom_site_fract_y
    _atom_site_fract_z
    _atom_site_occupancy
    Zn0     Zn   0.28791   0.33897   0.20298   1.000
    Zn1     Zn   0.54021   0.36062   0.27519   1.000
    Zn2     Zn   0.21235   0.79713   0.66157   1.000
    Zn3     Zn   0.96004   0.72506   0.64010   1.000
    Zn4     Zn   0.71215   0.66106   0.79704   1.000
    Zn5     Zn   0.45985   0.63941   0.72483   1.000
    Zn6     Zn   0.78772   0.20291   0.33845   1.000
    Zn7     Zn   0.04002   0.27499   0.35992   1.000
    H8      H    0.64880   0.47640   0.10843   1.000
    H9      H    0.12759   0.06364   0.04153   1.000
    H10     H    0.35214   0.48709   0.55120   1.000
    H11     H    0.05776   0.34432   0.16645   1.000
    H12     H    0.85461   0.24910   0.04327   1.000
    H13     H    0.97717   0.11979   0.87446   1.000
    H14     H    0.17617   0.22424   0.00192   1.000
    H15     H    0.29172   0.43058   0.04750   1.000
    H16     H    0.50590   0.16264   0.13839   1.000
    H17     H    0.85157   0.89187   0.52403   1.000
    H18     H    0.37272   0.95897   0.93663   1.000
    H19     H    0.14776   0.44868   0.51176   1.000
    H20     H    0.44246   0.83371   0.65610   1.000
    H21     H    0.64566   0.95700   0.75129   1.000
    H22     H    0.52321   0.12613   0.88050   1.000
    H23     H    0.32414   0.99856   0.77618   1.000
    H24     H    0.20838   0.95227   0.56943   1.000
    H25     H    0.99446   0.86198   0.83780   1.000
    H26     H    0.35127   0.52362   0.89159   1.000
    H27     H    0.87247   0.93639   0.95850   1.000
    H28     H    0.64792   0.51295   0.44882   1.000
    H29     H    0.94229   0.65570   0.83357   1.000
    H30     H    0.14546   0.75091   0.95675   1.000
    H31     H    0.02291   0.88024   0.12556   1.000
    H32     H    0.82390   0.77581   0.99810   1.000
    H33     H    0.70835   0.56943   0.95243   1.000
    H34     H    0.49416   0.83740   0.86164   1.000
    H35     H    0.14850   0.10817   0.47598   1.000
    H36     H    0.62734   0.04107   0.06339   1.000
    H37     H    0.85230   0.55136   0.48820   1.000
    H38     H    0.55760   0.16632   0.34385   1.000
    H39     H    0.35440   0.04303   0.24873   1.000
    H40     H    0.47687   0.87392   0.11950   1.000
    H41     H    0.67593   0.00149   0.22383   1.000
    H42     H    0.79169   0.04776   0.43058   1.000
    H43     H    0.00560   0.13805   0.16222   1.000
    C44     C    0.45920   0.42287   0.12875   1.000
    C45     C    0.47862   0.46285   0.06244   1.000
    C46     C    0.58379   0.48681   0.06070   1.000
    C47     C    0.39309   0.47633   0.00000   1.000
    C48     C    0.34838   0.18208   0.14572   1.000
    C49     C    0.29993   0.09272   0.06779   1.000
    C50     C    0.18097   0.04067   0.01802   1.000
    C51     C    0.37065   0.06217   0.03931   1.000
    C52     C    0.26034   0.38072   0.37646   1.000
    C53     C    0.38411   0.44154   0.43703   1.000
    C54     C    0.46813   0.44759   0.40636   1.000
    C55     C    0.41802   0.49343   0.52932   1.000
    C56     C    0.03631   0.29584   0.09970   1.000
    C57     C    0.92412   0.24267   0.03190   1.000
    C58     C    0.90107   0.17667   0.94969   1.000
    C59     C    0.99281   0.17063   0.93753   1.000
    C60     C    0.10283   0.22790   0.00827   1.000
    C61     C    0.04107   0.87132   0.57742   1.000
    C62     C    0.02157   0.93765   0.53736   1.000
    C63     C    0.91645   0.93947   0.51343   1.000
    C64     C    0.10694   0.99935   0.52361   1.000
    C65     C    0.15190   0.85478   0.81827   1.000
    C66     C    0.20039   0.93265   0.90765   1.000
    C67     C    0.31934   0.98244   0.95966   1.000
    C68     C    0.12966   0.96106   0.93825   1.000
    C69     C    0.23974   0.62329   0.61935   1.000
    C70     C    0.11597   0.56286   0.55848   1.000
    C71     C    0.03205   0.59362   0.55310   1.000
    C72     C    0.08193   0.47062   0.50594   1.000
    C73     C    0.46394   0.90055   0.70462   1.000
    C74     C    0.57616   0.96842   0.75773   1.000
    C75     C    0.59926   0.05072   0.82369   1.000
    C76     C    0.50754   0.06297   0.82971   1.000
    C77     C    0.39747   0.99216   0.77250   1.000
    C78     C    0.54084   0.57710   0.87123   1.000
    C79     C    0.52146   0.53720   0.93760   1.000
    C80     C    0.41627   0.51321   0.93931   1.000
    C81     C    0.60697   0.52368   0.99940   1.000
    C82     C    0.65168   0.81797   0.85428   1.000
    C83     C    0.70013   0.90731   0.93225   1.000
    C84     C    0.81908   0.95935   0.98201   1.000
    C85     C    0.62940   0.93787   0.96071   1.000
    C86     C    0.73972   0.61933   0.62356   1.000
    C87     C    0.61595   0.55850   0.56299   1.000
    C88     C    0.53192   0.55245   0.59366   1.000
    C89     C    0.58204   0.50662   0.47070   1.000
    C90     C    0.96376   0.70419   0.90032   1.000
    C91     C    0.07594   0.75735   0.96812   1.000
    C92     C    0.09900   0.82336   0.05033   1.000
    C93     C    0.00726   0.82940   0.06250   1.000
    C94     C    0.89724   0.77214   0.99176   1.000
    C95     C    0.95901   0.12872   0.42260   1.000
    C96     C    0.97851   0.06238   0.46265   1.000
    C97     C    0.08363   0.06056   0.48658   1.000
    C98     C    0.89314   0.00000   0.47640   1.000
    C99     C    0.84815   0.14527   0.18174   1.000
    C100    C    0.79967   0.06738   0.09238   1.000
    C101    C    0.68072   0.01760   0.04037   1.000
    C102    C    0.87039   0.03897   0.06177   1.000
    C103    C    0.76032   0.37674   0.38070   1.000
    C104    C    0.88409   0.43717   0.44154   1.000
    C105    C    0.96801   0.40641   0.44690   1.000
    C106    C    0.91813   0.52942   0.49409   1.000
    C107    C    0.53613   0.09948   0.29540   1.000
    C108    C    0.42391   0.03162   0.24229   1.000
    C109    C    0.40081   0.94932   0.17632   1.000
    C110    C    0.49253   0.93708   0.17030   1.000
    C111    C    0.60260   0.00788   0.22750   1.000
    N112    N    0.12503   0.28834   0.08927   1.000
    N113    N    0.79042   0.11015   0.87863   1.000
    N114    N    0.37523   0.91103   0.71213   1.000
    N115    N    0.70991   0.12180   0.89019   1.000
    N116    N    0.87504   0.71170   0.91075   1.000
    N117    N    0.20965   0.88987   0.12139   1.000
    N118    N    0.62483   0.08900   0.28788   1.000
    N119    N    0.29016   0.87824   0.10982   1.000
    O120    O    0.36144   0.40101   0.12931   1.000
    O121    O    0.53943   0.41157   0.18026   1.000
    O122    O    0.28945   0.45468   0.99851   1.000
    O123    O    0.28111   0.21153   0.15960   1.000
    O124    O    0.45866   0.22576   0.19415   1.000
    O125    O    0.48626   0.10746   0.08531   1.000
    O126    O    0.44136   0.39774   0.31881   1.000
    O127    O    0.21564   0.34726   0.28867   1.000
    O128    O    0.19884   0.36400   0.41814   1.000
    O129    O    0.13878   0.87063   0.59919   1.000
    O130    O    0.96109   0.82007   0.58906   1.000
    O131    O    0.21056   0.00131   0.54521   1.000
    O132    O    0.21915   0.84094   0.78878   1.000
    O133    O    0.04162   0.80625   0.77470   1.000
    O134    O    0.01405   0.91506   0.89297   1.000
    O135    O    0.05908   0.68112   0.60376   1.000
    O136    O    0.28458   0.71123   0.65308   1.000
    O137    O    0.30116   0.58136   0.63562   1.000
    O138    O    0.63864   0.59903   0.87072   1.000
    O139    O    0.46066   0.58848   0.81978   1.000
    O140    O    0.71061   0.54533   0.00150   1.000
    O141    O    0.71895   0.78849   0.84037   1.000
    O142    O    0.54139   0.77426   0.80589   1.000
    O143    O    0.51379   0.89257   0.91472   1.000
    O144    O    0.55870   0.60230   0.68121   1.000
    O145    O    0.78442   0.65278   0.71135   1.000
    O146    O    0.80122   0.63605   0.58188   1.000
    O147    O    0.86129   0.12939   0.40080   1.000
    O148    O    0.03899   0.17997   0.41096   1.000
    O149    O    0.78951   0.99872   0.45479   1.000
    O150    O    0.78091   0.15910   0.21124   1.000
    O151    O    0.95843   0.19377   0.22530   1.000
    O152    O    0.98601   0.08497   0.10706   1.000
    O153    O    0.94098   0.31892   0.39627   1.000
    O154    O    0.71548   0.28880   0.34693   1.000
    O155    O    0.69890   0.41867   0.36440   1.000
loop_
    _geom_bond_atom_site_label_1
    _geom_bond_atom_site_label_2
    _geom_bond_distance
    _geom_bond_site_symmetry_2
    _ccdc_geom_bond_type
    C47    C45       1.42654      .   S
    C47    C80       1.38587  1_554   S
    C47    O122      1.36231  1_554   S
    O140   H33       0.99798  1_554   S
    O140   C81       1.35821  1_554   S
    H14    C60       1.08848      .   S
    C60    N112      1.35004      .   S
    C60    C59       1.38879  1_454   S
    C50    H9        1.08920      .   S
    C50    C49       1.40207      .   S
    C50    C68       1.39504  1_544   S
    C57    H12       1.08810      .   S
    C57    C56       1.38636  1_655   S
    C57    C58       1.40311  1_554   S
    C51    C49       1.42164      .   S
    C51    O125      1.35659      .   S
    C51    C67       1.39500  1_544   S
    C101   H36       1.08923      .   S
    C101   C100      1.40205      .   S
    C101   C85       1.39509  1_544   S
    H15    O122      0.99679  1_554   S
    C92    C93       1.39996      .   S
    C92    N117      1.42113      .   S
    C92    C91       1.40322  1_554   S
    C46    C45       1.40303      .   S
    C46    H8        1.08810      .   S
    C46    C81       1.39523  1_554   S
    C102   C100      1.42161      .   S
    C102   O152      1.35662      .   S
    C102   C84       1.39499  1_544   S
    C45    C44       1.48570      .   S
    C93    H31       1.08893      .   S
    C93    C94       1.38879  1_454   S
    C49    C48       1.48378      .   S
    O125   H16       0.99892      .   S
    N112   C56       1.35443      .   S
    N112   Zn0       2.13292      .   S
    C100   C99       1.48389      .   S
    C56    H11       1.08789      .   S
    O152   H43       0.99909  1_655   S
    N119   N117      1.27567      .   S
    N119   C109      1.42112      .   S
    H40    C110      1.08902      .   S
    C44    O120      1.29681      .   S
    C44    O121      1.27011      .   S
    O120   Zn0       2.10620      .   S
    C48    O123      1.26310      .   S
    C48    O124      1.29885      .   S
    O123   Zn0       2.04656      .   S
    C110   C109      1.39997      .   S
    C110   C111      1.38916  1_565   S
    C109   C108      1.40296  1_565   S
    O121   Zn1       1.98156      .   S
    C99    O150      1.26344      .   S
    C99    O151      1.29895      .   S
    O124   Zn1       2.00415      .   S
    Zn0    O127      2.02685      .   S
    O150   Zn6       2.04717      .   S
    H41    C111      1.08848      .   S
    O151   Zn7       2.00382  1_655   S
    C111   N118      1.35003      .   S
    C108   H39       1.08808      .   S
    C108   C107      1.38670      .   S
    Zn1    O126      1.97376      .   S
    Zn1    O155      1.93045      .   S
    N118   C107      1.35445      .   S
    N118   Zn6       2.13380      .   S
    O127   C52       1.27624      .   S
    C107   H38       1.08789      .   S
    O126   C54       1.35481      .   S
    Zn6    O154      2.02683      .   S
    Zn6    O147      2.10466      .   S
    O154   C103      1.27631      .   S
    Zn7    O153      1.97290  1_455   S
    Zn7    O148      1.98176      .   S
    Zn7    O128      1.93026      .   S
    O155   C103      1.28535      .   S
    C52    O128      1.28531      .   S
    C52    C53       1.48339      .   S
    C103   C104      1.48326      .   S
    O153   C105      1.35471      .   S
    O147   C95       1.29684      .   S
    C54    C53       1.42037      .   S
    C54    C89       1.39718      .   S
    O148   C95       1.26972  1_455   S
    C95    C96       1.48567      .   S
    H42    O149      0.99786  1_545   S
    C53    C55       1.40359      .   S
    C104   C105      1.42029      .   S
    C104   C106      1.40352      .   S
    C105   C72       1.39679  1_655   S
    H28    C89       1.08666      .   S
    O149   C98       1.36320  1_565   S
    C96    C98       1.42762      .   S
    C96    C97       1.40252  1_655   S
    C89    C87       1.40358      .   S
    H35    C97       1.08807      .   S
    C98    C63       1.38387  1_545   S
    C97    C64       1.39450  1_545   S
    H37    C106      1.08661      .   S
    C106   C71       1.39671  1_655   S
    C72    H19       1.08674      .   S
    C72    C70       1.40350      .   S
    C63    H17       1.08807      .   S
    C63    C62       1.40252  1_655   S
    C64    C62       1.42205      .   S
    C64    O131      1.35854  1_565   S
    C55    H10       1.08666      .   S
    C55    C88       1.39717      .   S
    C62    C61       1.48562      .   S
    O131   H24       0.99793  1_545   S
    C71    C70       1.42022      .   S
    C71    O135      1.35488      .   S
    C70    C69       1.48328      .   S
    C87    C88       1.42037      .   S
    C87    C86       1.48340      .   S
    C61    O130      1.26976  1_455   S
    C61    O129      1.29684      .   S
    O146   C86       1.28531      .   S
    O146   Zn3       1.93027      .   S
    O130   Zn3       1.98173      .   S
    C88    O144      1.35481      .   S
    O129   Zn2       2.10473      .   S
    O135   Zn3       1.97286  1_455   S
    C69    O137      1.28534      .   S
    C69    O136      1.27632      .   S
    C86    O145      1.27624      .   S
    O137   Zn5       1.93043      .   S
    Zn3    O133      2.00352  1_655   S
    O136   Zn2       2.02681      .   S
    H20    C73       1.08842      .   S
    Zn2    N114      2.13379      .   S
    Zn2    O132      2.04722      .   S
    O144   Zn5       1.97369      .   S
    C73    N114      1.35441      .   S
    C73    C74       1.38669      .   S
    O145   Zn4       2.02691      .   S
    N114   C77       1.35001      .   S
    Zn5    O142      2.00411      .   S
    Zn5    O139      1.98162      .   S
    H21    C74       1.08807      .   S
    C74    C75       1.40294  1_565   S
    C77    H23       1.08852      .   S
    C77    C76       1.38917  1_565   S
    O133   C65       1.29897      .   S
    O132   C65       1.26346      .   S
    Zn4    O141      2.04640      .   S
    Zn4    O138      2.10614      .   S
    Zn4    N116      2.13300      .   S
    O142   C82       1.29887      .   S
    C65    C66       1.48389      .   S
    O139   C78       1.27016      .   S
    C75    C76       1.40000      .   S
    C75    N115      1.42110      .   S
    C76    H22       1.08899      .   S
    H29    C90       1.08790      .   S
    H25    O134      0.99914  1_655   S
    O141   C82       1.26353      .   S
    C82    C83       1.48380      .   S
    H34    O143      0.99891      .   S
    O138   C78       1.29685      .   S
    C78    C79       1.48574      .   S
    H13    C59       1.08905      .   S
    N113   N115      1.27575      .   S
    N113   C58       1.42112      .   S
    H26    C80       1.08804      .   S
    O134   C68       1.35660      .   S
    C90    N116      1.35439      .   S
    C90    C91       1.38636  1_655   S
    C66    C68       1.42158      .   S
    C66    C67       1.40206      .   S
    N116   C94       1.35019      .   S
    O143   C85       1.35658      .   S
    C83    C85       1.42157      .   S
    C83    C84       1.40207      .   S
    H18    C67       1.08931      .   S
    C59    C58       1.39999      .   S
    C79    C80       1.40293      .   S
    C79    C81       1.42150      .   S
    H30    C91       1.08806      .   S
    H27    C84       1.08921      .   S
    C94    H32       1.08840      .   S
    O126   Zn0       2.05126      .   S
    O135   Zn2       2.05196      .   S
    O144   Zn4       2.05127      .   S
    O153   Zn6       2.05187      .   S
