# CIF file generated by openbabel 2.4.90, see http://openbabel.sf.net
data_I
_chemical_name_common ''
_cell_length_a 13.396
_cell_length_b 15.744
_cell_length_c 23.744
_cell_angle_alpha 89.872
_cell_angle_beta 90.124
_cell_angle_gamma 101.064
_space_group_name_H-M_alt 'P 1'
_space_group_name_Hall 'P 1'
loop_
    _symmetry_equiv_pos_as_xyz
    x,y,z
loop_
    _atom_site_label
    _atom_site_type_symbol
    _atom_site_fract_x
    _atom_site_fract_y
    _atom_site_fract_z
    _atom_site_occupancy
    H0      H    0.07847   0.08800   0.33030   1.000
    H1      H    0.57889   0.08821   0.33058   1.000
    H2      H    0.03435   0.37748   0.26452   1.000
    H3      H    0.53439   0.37747   0.26456   1.000
    H4      H    0.30374   0.30859   0.41174   1.000
    H5      H    0.80398   0.30847   0.41186   1.000
    H6      H    0.32860   0.38779   0.26540   1.000
    H7      H    0.82821   0.38774   0.26560   1.000
    H8      H    0.33140   0.54756   0.25348   1.000
    H9      H    0.83097   0.54753   0.25363   1.000
    H10     H    0.50433   0.60057   0.40617   1.000
    H11     H    0.00000   0.60057   0.40606   1.000
    H12     H    0.50552   0.44156   0.41733   1.000
    H13     H    0.00000   0.44155   0.41721   1.000
    H14     H    0.16248   0.44187   0.22735   1.000
    H15     H    0.66281   0.44198   0.22746   1.000
    H16     H    0.08487   0.39607   0.16964   1.000
    H17     H    0.58531   0.39628   0.16969   1.000
    H18     H    0.22411   0.50661   0.13455   1.000
    H19     H    0.72462   0.50677   0.13467   1.000
    H20     H    0.31690   0.46022   0.17043   1.000
    H21     H    0.81738   0.46035   0.17057   1.000
    H22     H    0.34635   0.31588   0.13851   1.000
    H23     H    0.84674   0.31597   0.13870   1.000
    H24     H    0.27531   0.26775   0.07950   1.000
    H25     H    0.77580   0.26786   0.07966   1.000
    H26     H    0.11520   0.24814   0.13374   1.000
    H27     H    0.61558   0.24825   0.13379   1.000
    H28     H    0.20640   0.19953   0.17028   1.000
    H29     H    0.70672   0.19963   0.17038   1.000
    H30     H    0.18696   0.38417   0.07685   1.000
    H31     H    0.68749   0.38431   0.07697   1.000
    H32     H    0.42402   0.41131   0.82948   1.000
    H33     H    0.92411   0.41125   0.82948   1.000
    H34     H    0.46799   0.12184   0.76456   1.000
    H35     H    0.96813   0.12187   0.76444   1.000
    H36     H    0.19842   0.19065   0.91233   1.000
    H37     H    0.69822   0.19063   0.91243   1.000
    H38     H    0.17322   0.11243   0.76546   1.000
    H39     H    0.67434   0.11264   0.76598   1.000
    H40     H    0.16913   0.95257   0.75282   1.000
    H41     H    0.67046   0.95281   0.75332   1.000
    H42     H    0.99786   0.89821   0.90560   1.000
    H43     H    0.49629   0.89802   0.90518   1.000
    H44     H    0.99792   0.05731   0.91750   1.000
    H45     H    0.49629   0.05710   0.91705   1.000
    H46     H    0.33860   0.05738   0.72784   1.000
    H47     H    0.83888   0.05745   0.72774   1.000
    H48     H    0.41633   0.10217   0.66998   1.000
    H49     H    0.91653   0.10229   0.66987   1.000
    H50     H    0.27617   0.99211   0.63531   1.000
    H51     H    0.77633   0.99218   0.63520   1.000
    H52     H    0.18401   0.03961   0.67057   1.000
    H53     H    0.68422   0.03970   0.67051   1.000
    H54     H    0.15600   0.18400   0.63756   1.000
    H55     H    0.65612   0.18402   0.63750   1.000
    H56     H    0.22741   0.23125   0.57849   1.000
    H57     H    0.72752   0.23134   0.57840   1.000
    H58     H    0.38739   0.25039   0.63309   1.000
    H59     H    0.88749   0.25054   0.63306   1.000
    H60     H    0.29674   0.29986   0.66908   1.000
    H61     H    0.79678   0.29991   0.66908   1.000
    H62     H    0.31463   0.11406   0.57694   1.000
    H63     H    0.81482   0.11418   0.57686   1.000
    H64     H    0.42389   0.91163   0.66930   1.000
    H65     H    0.92098   0.90952   0.66779   1.000
    H66     H    0.46802   0.62194   0.73468   1.000
    H67     H    0.96888   0.62166   0.73488   1.000
    H68     H    0.19956   0.69164   0.58779   1.000
    H69     H    0.69805   0.69126   0.58720   1.000
    H70     H    0.17448   0.61179   0.73383   1.000
    H71     H    0.67347   0.61199   0.73369   1.000
    H72     H    0.17018   0.45171   0.74612   1.000
    H73     H    0.66960   0.45209   0.74607   1.000
    H74     H    0.99706   0.39920   0.59347   1.000
    H75     H    0.49667   0.39898   0.59341   1.000
    H76     H    0.99743   0.55850   0.58200   1.000
    H77     H    0.49654   0.55815   0.58183   1.000
    H78     H    0.33949   0.55741   0.77148   1.000
    H79     H    0.83973   0.55633   0.77159   1.000
    H80     H    0.41697   0.60239   0.82944   1.000
    H81     H    0.91689   0.60253   0.82937   1.000
    H82     H    0.27720   0.49186   0.86400   1.000
    H83     H    0.77780   0.49171   0.86443   1.000
    H84     H    0.18481   0.53898   0.82830   1.000
    H85     H    0.68493   0.53791   0.82845   1.000
    H86     H    0.15597   0.68315   0.86077   1.000
    H87     H    0.65503   0.68219   0.86030   1.000
    H88     H    0.22688   0.73053   0.92001   1.000
    H89     H    0.72623   0.73063   0.91918   1.000
    H90     H    0.38721   0.75020   0.86592   1.000
    H91     H    0.88606   0.75061   0.86477   1.000
    C92     C    0.58365   0.91926   0.82873   1.000
    C93     C    0.13418   0.06533   0.79576   1.000
    C94     C    0.63480   0.06546   0.79608   1.000
    C95     C    0.13276   0.97704   0.78862   1.000
    H96     H    0.29644   0.79950   0.82953   1.000
    H97     H    0.79443   0.79857   0.82811   1.000
    H98     H    0.31482   0.61376   0.92218   1.000
    H99     H    0.81480   0.61437   0.92195   1.000
    H100    H    0.08022   0.58727   0.17039   1.000
    H101    H    0.57660   0.58710   0.17065   1.000
    H102    H    0.03240   0.87552   0.23569   1.000
    H103    H    0.53016   0.87610   0.23533   1.000
    H104    H    0.30130   0.80650   0.08711   1.000
    H105    H    0.80421   0.80647   0.08728   1.000
    H106    H    0.32515   0.88455   0.23407   1.000
    H107    H    0.82603   0.88399   0.23387   1.000
    H108    H    0.32968   0.04455   0.24678   1.000
    H109    H    0.82928   0.04376   0.24643   1.000
    H110    H    0.50260   0.09893   0.09450   1.000
    H111    H    0.00000   0.09904   0.09511   1.000
    H112    H    0.50191   0.93963   0.08250   1.000
    H113    H    0.00000   0.93999   0.08331   1.000
    H114    H    0.16133   0.94094   0.27222   1.000
    H115    H    0.66002   0.94131   0.27180   1.000
    H116    H    0.08430   0.89576   0.33024   1.000
    H117    H    0.58298   0.89677   0.33000   1.000
    H118    H    0.22374   0.00000   0.36466   1.000
    H119    H    0.72339   0.00000   0.36414   1.000
    H120    H    0.31634   0.96000   0.32923   1.000
    H121    H    0.81525   0.95964   0.32861   1.000
    H122    H    0.34610   0.81617   0.36212   1.000
    H123    H    0.84395   0.81548   0.36156   1.000
    C124    C    0.27560   0.65316   0.04540   1.000
    C125    C    0.77856   0.65358   0.04541   1.000
    C126    C    0.35230   0.68667   0.09095   1.000
    C127    C    0.85535   0.68672   0.09094   1.000
    C128    C    0.42371   0.63983   0.11686   1.000
    H129    H    0.27563   0.76851   0.42130   1.000
    H130    H    0.77353   0.76841   0.42100   1.000
    H131    H    0.11506   0.74816   0.36714   1.000
    H132    H    0.61266   0.74907   0.36712   1.000
    H133    H    0.20608   0.69929   0.33100   1.000
    H134    H    0.70271   0.69922   0.33089   1.000
    H135    H    0.18683   0.88477   0.42307   1.000
    H136    H    0.68586   0.88534   0.42272   1.000
    C137    C    0.27628   0.15463   0.45338   1.000
    C138    C    0.77627   0.15447   0.45325   1.000
    C139    C    0.35398   0.18842   0.40846   1.000
    C140    C    0.85379   0.18814   0.40822   1.000
    C141    C    0.42563   0.14145   0.38320   1.000
    C142    C    0.92490   0.14097   0.38258   1.000
    C143    C    0.49293   0.18938   0.34032   1.000
    C144    C    0.99260   0.18921   0.34003   1.000
    C145    C    0.06847   0.15108   0.31498   1.000
    C146    C    0.56874   0.15122   0.31520   1.000
    C147    C    0.13008   0.19353   0.27367   1.000
    C148    C    0.63017   0.19357   0.27378   1.000
    C149    C    0.11839   0.27526   0.25132   1.000
    C150    C    0.61851   0.27531   0.25140   1.000
    C151    C    0.04623   0.31464   0.27861   1.000
    C152    C    0.54631   0.31465   0.27868   1.000
    C153    C    0.48608   0.27379   0.32290   1.000
    C154    C    0.98595   0.27373   0.32278   1.000
    C155    C    0.35523   0.27230   0.39157   1.000
    C156    C    0.85528   0.27217   0.39153   1.000
    C157    C    0.41699   0.40616   0.34219   1.000
    C158    C    0.91694   0.40612   0.34219   1.000
    C159    C    0.41743   0.58035   0.32937   1.000
    C160    C    0.91741   0.58034   0.32938   1.000
    C161    C    0.36778   0.43458   0.29588   1.000
    C162    C    0.86753   0.43455   0.29595   1.000
    C163    C    0.36845   0.52288   0.28911   1.000
    C164    C    0.86819   0.52285   0.28919   1.000
    C165    C    0.46694   0.55329   0.37571   1.000
    C166    C    0.96710   0.55327   0.37565   1.000
    C167    C    0.46695   0.46511   0.38177   1.000
    C168    C    0.96709   0.46509   0.38100   1.000
    C169    C    0.16057   0.40114   0.18967   1.000
    C170    C    0.66095   0.40127   0.18978   1.000
    C171    C    0.24262   0.44534   0.14921   1.000
    C172    C    0.74310   0.44548   0.14933   1.000
    C173    C    0.27184   0.30681   0.11741   1.000
    C174    C    0.77227   0.30693   0.11756   1.000
    C175    C    0.18858   0.26127   0.15667   1.000
    C176    C    0.68892   0.26137   0.15676   1.000
    C177    C    0.22528   0.34488   0.95358   1.000
    C178    C    0.72516   0.34486   0.95367   1.000
    C179    C    0.14800   0.31078   0.90850   1.000
    C180    C    0.64786   0.31079   0.90860   1.000
    C181    C    0.07643   0.35768   0.88286   1.000
    C182    C    0.57633   0.35773   0.88294   1.000
    C183    C    0.00962   0.30986   0.83982   1.000
    C184    C    0.50950   0.30990   0.83989   1.000
    C185    C    0.43407   0.34825   0.81430   1.000
    C186    C    0.93415   0.34822   0.81433   1.000
    C187    C    0.37284   0.30602   0.77280   1.000
    C188    C    0.87291   0.30601   0.77281   1.000
    C189    C    0.38415   0.22415   0.75080   1.000
    C190    C    0.88427   0.22417   0.75078   1.000
    C191    C    0.45620   0.18470   0.77846   1.000
    C192    C    0.95634   0.18471   0.77837   1.000
    C193    C    0.01656   0.22552   0.82263   1.000
    C194    C    0.51640   0.22553   0.82273   1.000
    C195    C    0.14699   0.22694   0.89187   1.000
    C196    C    0.64682   0.22693   0.89196   1.000
    C197    C    0.08567   0.09330   0.84229   1.000
    C198    C    0.58548   0.09330   0.84235   1.000
    C199    C    0.08372   0.91923   0.82871   1.000
    C200    C    0.63347   0.97719   0.78890   1.000
    C201    C    0.03517   0.94584   0.87536   1.000
    C202    C    0.53422   0.94573   0.87508   1.000
    C203    C    0.03590   0.03403   0.88178   1.000
    C204    C    0.53491   0.03391   0.88153   1.000
    C205    C    0.34076   0.09781   0.68989   1.000
    C206    C    0.84097   0.09789   0.68979   1.000
    C207    C    0.25834   0.05376   0.64949   1.000
    C208    C    0.75854   0.05384   0.64941   1.000
    C209    C    0.23051   0.19242   0.61667   1.000
    C210    C    0.73064   0.19250   0.61662   1.000
    C211    C    0.31403   0.23784   0.65589   1.000
    C212    C    0.81413   0.23792   0.65586   1.000
    C213    C    0.22576   0.84552   0.54627   1.000
    C214    C    0.72524   0.84542   0.54602   1.000
    C215    C    0.14826   0.81135   0.59108   1.000
    C216    C    0.64774   0.81138   0.59086   1.000
    C217    C    0.07604   0.85784   0.61610   1.000
    C218    C    0.57618   0.85824   0.61623   1.000
    C219    C    0.00874   0.80947   0.65880   1.000
    C220    C    0.50934   0.81025   0.65920   1.000
    C221    C    0.43395   0.84851   0.68455   1.000
    C222    C    0.93195   0.84688   0.68342   1.000
    C223    C    0.37280   0.80613   0.72600   1.000
    C224    C    0.87045   0.80404   0.72460   1.000
    C225    C    0.38419   0.72420   0.74817   1.000
    C226    C    0.88316   0.72288   0.74740   1.000
    C227    C    0.45616   0.68484   0.72070   1.000
    C228    C    0.95625   0.68415   0.72053   1.000
    C229    C    0.01640   0.72534   0.67630   1.000
    C230    C    0.51624   0.72581   0.67640   1.000
    C231    C    0.14768   0.72757   0.60794   1.000
    C232    C    0.64663   0.72744   0.60757   1.000
    C233    C    0.08609   0.59352   0.65710   1.000
    C234    C    0.58506   0.59352   0.65690   1.000
    C235    C    0.08385   0.41930   0.67031   1.000
    C236    C    0.58342   0.41934   0.67025   1.000
    C237    C    0.13503   0.56500   0.70351   1.000
    C238    C    0.63406   0.56516   0.70338   1.000
    C239    C    0.13347   0.47662   0.71045   1.000
    C240    C    0.63280   0.47683   0.71037   1.000
    C241    C    0.03483   0.44648   0.62383   1.000
    C242    C    0.53429   0.44634   0.62376   1.000
    C243    C    0.03572   0.53475   0.61760   1.000
    C244    C    0.53488   0.53457   0.61747   1.000
    C245    C    0.34139   0.59777   0.80933   1.000
    C246    C    0.84126   0.59714   0.80920   1.000
    C247    C    0.25906   0.55339   0.84959   1.000
    C248    C    0.75922   0.55290   0.84967   1.000
    C249    C    0.23040   0.69181   0.88194   1.000
    C250    C    0.72964   0.69145   0.88131   1.000
    C251    C    0.31392   0.73753   0.84291   1.000
    C252    C    0.81264   0.73704   0.84190   1.000
    C253    C    0.92679   0.63978   0.11679   1.000
    C254    C    0.49005   0.68781   0.16010   1.000
    C255    C    0.99325   0.68773   0.16004   1.000
    C256    C    0.06930   0.65005   0.18557   1.000
    C257    C    0.56588   0.65001   0.18569   1.000
    C258    C    0.13015   0.69272   0.22714   1.000
    C259    C    0.62680   0.69278   0.22715   1.000
    C260    C    0.11769   0.77419   0.24920   1.000
    C261    C    0.61489   0.77445   0.24914   1.000
    C262    C    0.04508   0.81296   0.22173   1.000
    C263    C    0.54243   0.81334   0.22152   1.000
    C264    C    0.48258   0.77205   0.17726   1.000
    C265    C    0.98549   0.77185   0.17735   1.000
    C266    C    0.35269   0.77035   0.10772   1.000
    C267    C    0.85564   0.77031   0.10785   1.000
    C268    C    0.41326   0.90383   0.15744   1.000
    C269    C    0.91571   0.90366   0.15778   1.000
    C270    C    0.41589   0.07769   0.17116   1.000
    C271    C    0.91677   0.07744   0.17130   1.000
    C272    C    0.36445   0.93168   0.20387   1.000
    C273    C    0.86577   0.93125   0.20388   1.000
    C274    C    0.36619   0.01996   0.21108   1.000
    C275    C    0.86673   0.01945   0.21098   1.000
    C276    C    0.46476   0.05121   0.12462   1.000
    C277    C    0.96679   0.05121   0.12510   1.000
    C278    C    0.46367   0.96301   0.11811   1.000
    C279    C    0.96647   0.96310   0.11869   1.000
    C280    C    0.15982   0.90066   0.31020   1.000
    C281    C    0.65834   0.90111   0.30986   1.000
    C282    C    0.24215   0.94534   0.35044   1.000
    C283    C    0.74117   0.94545   0.34995   1.000
    C284    C    0.27174   0.80717   0.38321   1.000
    C285    C    0.76976   0.80703   0.38280   1.000
    C286    C    0.18827   0.76113   0.34419   1.000
    C287    C    0.68570   0.76137   0.34400   1.000
    N288    N    0.25430   0.39249   0.09941   1.000
    N289    N    0.75480   0.39262   0.09954   1.000
    N290    N    0.17776   0.31512   0.20676   1.000
    N291    N    0.67798   0.31519   0.20687   1.000
    N292    N    0.41639   0.31510   0.35068   1.000
    N293    N    0.91636   0.31504   0.35065   1.000
    N294    N    0.24727   0.10635   0.59930   1.000
    N295    N    0.74747   0.10646   0.59923   1.000
    N296    N    0.32449   0.18424   0.70636   1.000
    N297    N    0.82463   0.18428   0.70630   1.000
    N298    N    0.08616   0.18424   0.85079   1.000
    N299    N    0.58598   0.18424   0.85089   1.000
    N300    N    0.24754   0.60586   0.89959   1.000
    N301    N    0.74746   0.60590   0.89939   1.000
    N302    N    0.32470   0.68410   0.79261   1.000
    N303    N    0.82370   0.68297   0.79193   1.000
    N304    N    0.08673   0.68456   0.64879   1.000
    N305    N    0.58572   0.68455   0.64849   1.000
    N306    N    0.25409   0.89296   0.40060   1.000
    N307    N    0.75299   0.89310   0.40015   1.000
    N308    N    0.17702   0.81449   0.29375   1.000
    N309    N    0.67464   0.81466   0.29348   1.000
    N310    N    0.41285   0.81298   0.14900   1.000
    N311    N    0.91566   0.81285   0.14923   1.000
    O312    O    0.25111   0.07084   0.45896   1.000
    O313    O    0.75097   0.07069   0.45880   1.000
    O314    O    0.23832   0.20722   0.48134   1.000
    O315    O    0.73856   0.20713   0.48129   1.000
    O316    O    0.43471   0.06496   0.39440   1.000
    O317    O    0.93325   0.06409   0.39314   1.000
    O318    O    0.25094   0.42872   0.95820   1.000
    O319    O    0.75090   0.42869   0.95834   1.000
    O320    O    0.26234   0.29257   0.98254   1.000
    O321    O    0.76227   0.29252   0.98250   1.000
    O322    O    0.06693   0.43407   0.89380   1.000
    O323    O    0.56689   0.43413   0.89391   1.000
    O324    O    0.25026   0.92933   0.54070   1.000
    O325    O    0.75030   0.92923   0.54065   1.000
    O326    O    0.26399   0.79315   0.51820   1.000
    O327    O    0.76313   0.79293   0.51793   1.000
    O328    O    0.06645   0.93422   0.60500   1.000
    O329    O    0.56675   0.93466   0.60507   1.000
    O330    O    0.25088   0.56943   0.03981   1.000
    O331    O    0.75301   0.56989   0.03970   1.000
    O332    O    0.23793   0.70587   0.01722   1.000
    O333    O    0.74166   0.70667   0.01707   1.000
    O334    O    0.43346   0.56347   0.10596   1.000
    O335    O    0.93642   0.56341   0.10582   1.000
    F336    F    0.20772   0.15574   0.25433   1.000
    F337    F    0.70770   0.15572   0.25435   1.000
    F338    F    0.41671   0.66624   0.32343   1.000
    F339    F    0.91672   0.66623   0.32342   1.000
    F340    F    0.29588   0.34435   0.75302   1.000
    F341    F    0.79591   0.34434   0.75302   1.000
    F342    F    0.08334   0.83337   0.82220   1.000
    F343    F    0.58335   0.83340   0.82221   1.000
    F344    F    0.29588   0.84437   0.74573   1.000
    F345    F    0.79166   0.84074   0.74330   1.000
    F346    F    0.08336   0.33334   0.67657   1.000
    F347    F    0.58334   0.33343   0.67656   1.000
    F348    F    0.20813   0.65558   0.24692   1.000
    F349    F    0.70443   0.65543   0.24699   1.000
    F350    F    0.41663   0.16349   0.17781   1.000
    F351    F    0.91666   0.16317   0.17700   1.000
loop_
    _geom_bond_atom_site_label_1
    _geom_bond_atom_site_label_2
    _geom_bond_distance
    _geom_bond_site_symmetry_2
    _ccdc_geom_bond_type
    O333   C125      1.24509      .   S
    O332   C124      1.24409      .   S
    O331   C125      1.30363      .   S
    O330   C124      1.30317      .   S
    C124   C126      1.51439      .   S
    C125   C127      1.51355      .   S
    H30    N288      1.03470      .   S
    H31    N289      1.03455      .   S
    H24    C173      1.09741      .   S
    H25    C174      1.09733      .   S
    H112   C278      1.09013      .   S
    H113   C279      1.05144  1_455   S
    H104   C266      1.08862      .   S
    H105   C267      1.08861      .   S
    C127   C267      1.37610      .   S
    C127   C253      1.45114      .   S
    C126   C266      1.37611      .   S
    C126   C128      1.45048      .   S
    H110   C276      1.08901      .   S
    H111   C277      1.06889  1_455   S
    N288   C173      1.47514      .   S
    N288   C171      1.47315      .   S
    N289   C174      1.47519      .   S
    N289   C172      1.47314      .   S
    O335   C253      1.26140      .   S
    O334   C128      1.26138      .   S
    C266   N310      1.36116      .   S
    C267   N311      1.36131      .   S
    C253   C255      1.46922      .   S
    C128   C254      1.46848      .   S
    C173   H22       1.10050      .   S
    C173   C175      1.52368      .   S
    C174   H23       1.10051      .   S
    C174   C176      1.52365      .   S
    C278   C276      1.39480  1_565   S
    C278   C268      1.39770      .   S
    C279   C277      1.39499  1_565   S
    C279   C269      1.39803      .   S
    C276   C270      1.39054      .   S
    C277   C271      1.39077      .   S
    H26    C175      1.10713      .   S
    H27    C176      1.10700      .   S
    H18    C171      1.09688      .   S
    H19    C172      1.09701      .   S
    N310   C268      1.44367      .   S
    N310   C264      1.40153      .   S
    C171   H20       1.09900      .   S
    C171   C169      1.52423      .   S
    N311   C269      1.44440      .   S
    N311   C265      1.40153      .   S
    C172   H21       1.09921      .   S
    C172   C170      1.52497      .   S
    C175   H28       1.09249      .   S
    C175   N290      1.48556      .   S
    C176   H29       1.09254      .   S
    C176   N291      1.48591      .   S
    C268   C272      1.39661      .   S
    C269   C273      1.39685      .   S
    C255   C265      1.41042      .   S
    C255   C256      1.40894  1_655   S
    C254   C264      1.41012      .   S
    C254   C257      1.40814      .   S
    H16    C169      1.10817      .   S
    H17    C170      1.10817      .   S
    H100   C256      1.08884      .   S
    H101   C257      1.08882      .   S
    C270   F350      1.35846      .   S
    C270   C274      1.39085      .   S
    C271   F351      1.35713      .   S
    C271   C275      1.39096      .   S
    C264   C263      1.40326      .   S
    C265   C262      1.40275  1_655   S
    C256   C258      1.37083      .   S
    C257   C259      1.37008      .   S
    C169   N290      1.47254      .   S
    C169   H14       1.09934      .   S
    C170   N291      1.47280      .   S
    C170   H15       1.09920      .   S
    C272   C274      1.39646  1_565   S
    C272   H106      1.09151      .   S
    C273   C275      1.39679  1_565   S
    C273   H107      1.09147      .   S
    N290   C149      1.39822      .   S
    N291   C150      1.39843      .   S
    C275   H109      1.08790      .   S
    C274   H108      1.08794      .   S
    C263   H103      1.08389      .   S
    C263   C261      1.40382      .   S
    C262   H102      1.08380      .   S
    C262   C260      1.40273      .   S
    C258   F348      1.37285      .   S
    C258   C260      1.42574      .   S
    C259   F349      1.37124      .   S
    C259   C261      1.42612      .   S
    C261   N309      1.39807      .   S
    C260   N308      1.39967      .   S
    C149   C147      1.42687      .   S
    C149   C151      1.40467      .   S
    C150   C148      1.42700      .   S
    C150   C152      1.40469      .   S
    H8     C163      1.08801      .   S
    H9     C164      1.08796      .   S
    F336   C147      1.37387      .   S
    F337   C148      1.37390      .   S
    H2     C151      1.08391      .   S
    H3     C152      1.08394      .   S
    H6     C161      1.09291      .   S
    H7     C162      1.09156      .   S
    H115   C281      1.09991      .   S
    H114   C280      1.09927      .   S
    C147   C145      1.37066      .   S
    C148   C146      1.37078      .   S
    C151   C154      1.40281  1_455   S
    C152   C153      1.40316      .   S
    C163   C161      1.39741      .   S
    C163   C159      1.39144      .   S
    C164   C162      1.39750      .   S
    C164   C160      1.39156      .   S
    N309   C281      1.47260      .   S
    N309   C287      1.48566      .   S
    N308   C280      1.47274      .   S
    N308   C286      1.48533      .   S
    C161   C157      1.39704      .   S
    C162   C158      1.39722      .   S
    C281   H117      1.10803      .   S
    C281   C283      1.52509      .   S
    C280   H116      1.10810      .   S
    C280   C282      1.52472      .   S
    C145   H0        1.08888      .   S
    C145   C144      1.40908  1_455   S
    C146   H1        1.08895      .   S
    C146   C143      1.40936      .   S
    C154   C144      1.41044      .   S
    C154   N293      1.40257      .   S
    C153   C143      1.41062      .   S
    C153   N292      1.40255      .   S
    F339   C160      1.36117      .   S
    F338   C159      1.36115      .   S
    H121   C283      1.09901      .   S
    H120   C282      1.09910      .   S
    C159   C165      1.39107      .   S
    C160   C166      1.39117      .   S
    H134   C287      1.09250      .   S
    H133   C286      1.09252      .   S
    C144   C142      1.46843      .   S
    C143   C141      1.46912      .   S
    C157   N292      1.44592      .   S
    C157   C167      1.39828      .   S
    C158   N293      1.44611      .   S
    C158   C168      1.38717      .   S
    C287   H132      1.10696      .   S
    C287   C285      1.52359      .   S
    C286   H131      1.10702      .   S
    C286   C284      1.52362      .   S
    C283   H119      0.99392  1_565   S
    C283   N307      1.47315      .   S
    C282   H118      0.99924  1_565   S
    C282   N306      1.47301      .   S
    N293   C156      1.36227      .   S
    N292   C155      1.36254      .   S
    H123   C285      1.10044      .   S
    H122   C284      1.10041      .   S
    C166   C168      1.39388      .   S
    C166   H11       1.07007  1_655   S
    C165   C167      1.39543      .   S
    C165   H10       1.08898      .   S
    C168   H13       1.06323  1_655   S
    C167   H12       1.08976      .   S
    C142   O317      1.26138      .   S
    C142   C140      1.45103      .   S
    C285   N307      1.47514      .   S
    C285   H130      1.09731      .   S
    C141   O316      1.26103      .   S
    C141   C139      1.45072      .   S
    C284   N306      1.47518      .   S
    C284   H129      1.09566      .   S
    C156   C140      1.37666      .   S
    C156   H5        1.08873      .   S
    C155   C139      1.37646      .   S
    C155   H4        1.08872      .   S
    N307   H136      1.03465      .   S
    N306   H135      1.03460      .   S
    C140   C138      1.51452      .   S
    C139   C137      1.51450      .   S
    C138   O313      1.30375      .   S
    C138   O315      1.24524      .   S
    C137   O312      1.30392      .   S
    C137   O314      1.24522      .   S
    O327   C214      1.24514      .   S
    O326   C213      1.24590      .   S
    O325   C214      1.30363      .   S
    O324   C213      1.30372      .   S
    C214   C216      1.51239      .   S
    C213   C215      1.51233      .   S
    H63    N295      1.03466      .   S
    H62    N294      1.03471      .   S
    H57    C210      1.09833      .   S
    H56    C209      1.09739      .   S
    H77    C244      1.08983      .   S
    H76    C243      1.08982  1_655   S
    H69    C232      1.08904      .   S
    H68    C231      1.08874      .   S
    C216   C232      1.37641      .   S
    C216   C218      1.44982      .   S
    C215   C231      1.37626      .   S
    C215   C217      1.44935      .   S
    H75    C242      1.08900      .   S
    H74    C241      1.08899  1_655   S
    N295   C210      1.47523      .   S
    N295   C208      1.47309      .   S
    N294   C209      1.47524      .   S
    N294   C207      1.47305      .   S
    O328   C217      1.26084      .   S
    O329   C218      1.26111      .   S
    C232   N305      1.36188      .   S
    C231   N304      1.36169      .   S
    C217   C219      1.46888      .   S
    C218   C220      1.46770      .   S
    C210   H55       1.10039      .   S
    C210   C212      1.52372      .   S
    C209   H54       1.10045      .   S
    C209   C211      1.52370      .   S
    C244   C242      1.39527      .   S
    C244   C234      1.39695      .   S
    C243   C241      1.39503      .   S
    C243   C233      1.39740      .   S
    C242   C236      1.39088      .   S
    C241   C235      1.39099      .   S
    H59    C212      1.10699      .   S
    H58    C211      1.10692      .   S
    H51    C208      1.09703  1_565   S
    H50    C207      1.09696  1_565   S
    N305   C234      1.44503      .   S
    N305   C230      1.40146      .   S
    N304   C233      1.44480      .   S
    N304   C229      1.40114      .   S
    C208   H53       1.09919      .   S
    C208   C206      1.52452      .   S
    C207   H52       1.09918      .   S
    C207   C205      1.52473      .   S
    C212   H61       1.09259      .   S
    C212   N297      1.48580      .   S
    C211   H60       1.09263      .   S
    C211   N296      1.48585      .   S
    C234   C238      1.39834      .   S
    C233   C237      1.39762      .   S
    C219   C229      1.40967      .   S
    C219   C222      1.40835  1_455   S
    C220   C230      1.40970      .   S
    C220   C221      1.40820      .   S
    H65    C222      1.08888      .   S
    H64    C221      1.08913      .   S
    H49    C206      1.10816      .   S
    H48    C205      1.10817      .   S
    C236   F347      1.36036      .   S
    C236   C240      1.39123      .   S
    C235   F346      1.36000      .   S
    C235   C239      1.39121      .   S
    C229   C228      1.40463  1_455   S
    C230   C227      1.40411      .   S
    C222   C224      1.37009      .   S
    C221   C223      1.36948      .   S
    C206   N297      1.47269      .   S
    C206   H47       1.09946      .   S
    C205   N296      1.47269      .   S
    C205   H46       1.09926      .   S
    C238   C240      1.39706      .   S
    C238   H71       1.09165      .   S
    C237   C239      1.39702      .   S
    C237   H70       1.09153      .   S
    N297   C190      1.39819      .   S
    N296   C189      1.39771      .   S
    C240   H73       1.08797      .   S
    C239   H72       1.08796      .   S
    C228   H67       1.08390      .   S
    C228   C226      1.40393      .   S
    C227   H66       1.08387      .   S
    C227   C225      1.40457      .   S
    C224   F345      1.37202      .   S
    C224   C226      1.42646      .   S
    C223   F344      1.37303      .   S
    C223   C225      1.42702      .   S
    C226   N303      1.39845      .   S
    C225   N302      1.39816      .   S
    C190   C188      1.42676      .   S
    C190   C192      1.40464      .   S
    C189   C187      1.42668      .   S
    C189   C191      1.40508      .   S
    H40    C95       1.08797      .   S
    F341   C188      1.37267      .   S
    F340   C187      1.37225      .   S
    H41    C200      1.08755      .   S
    H35    C192      1.08391      .   S
    H34    C191      1.08397      .   S
    H38    C93       1.09152      .   S
    H39    C94       1.09148      .   S
    H78    C245      1.09919      .   S
    H79    C246      1.09920      .   S
    C187   C185      1.36962      .   S
    C188   C186      1.36995      .   S
    C192   C193      1.40302  1_655   S
    C191   C194      1.40318      .   S
    C95    C93       1.39710  1_565   S
    C95    C199      1.39118      .   S
    C200   C94       1.39722  1_565   S
    C200   C92       1.39170      .   S
    N303   C246      1.47263      .   S
    N303   C252      1.48592      .   S
    N302   C245      1.47272      .   S
    N302   C251      1.48552      .   S
    C93    C197      1.39715      .   S
    C94    C198      1.39721      .   S
    C246   H81       1.10826      .   S
    C246   C248      1.52452      .   S
    C245   H80       1.10821      .   S
    C245   C247      1.52453      .   S
    C185   H32       1.08934      .   S
    C185   C184      1.40883      .   S
    C186   H33       1.08879      .   S
    C186   C183      1.40821  1_655   S
    F342   C199      1.36006      .   S
    F343   C92       1.36017      .   S
    C193   C183      1.41009      .   S
    C193   N298      1.40246      .   S
    C194   C184      1.41012      .   S
    C194   N299      1.40234      .   S
    H97    C252      1.09274      .   S
    H84    C247      1.09922      .   S
    H85    C248      1.09912      .   S
    C199   C201      1.39106      .   S
    C92    C202      1.39088      .   S
    H96    C251      1.09254      .   S
    C183   C181      1.46734      .   S
    C184   C182      1.46775      .   S
    C252   H91       1.10700      .   S
    C252   C250      1.52390      .   S
    C197   N298      1.44507      .   S
    C197   C203      1.39803      .   S
    C198   N299      1.44516      .   S
    C198   C204      1.39797      .   S
    C251   H90       1.10691      .   S
    C251   C249      1.52353      .   S
    C247   H82       1.09684      .   S
    C247   N300      1.47303      .   S
    C248   H83       1.09685      .   S
    C248   N301      1.47318      .   S
    N298   C195      1.36255      .   S
    N299   C196      1.36250      .   S
    H87    C250      1.10064      .   S
    H86    C249      1.10052      .   S
    C202   C204      1.39533  1_565   S
    C202   H43       1.08899      .   S
    C201   C203      1.39533  1_565   S
    C201   H42       1.08764  1_455   S
    C250   N301      1.47516      .   S
    C250   H89       1.09749      .   S
    C204   H45       1.08989      .   S
    C203   H44       1.08966  1_455   S
    C249   N300      1.47514      .   S
    C249   H88       1.09748      .   S
    C181   O322      1.26117      .   S
    C181   C179      1.44984      .   S
    C182   O323      1.26115      .   S
    C182   C180      1.45015      .   S
    C195   C179      1.37624      .   S
    C195   H36       1.08876      .   S
    C196   C180      1.37638      .   S
    C196   H37       1.08875      .   S
    N301   H99       1.03461      .   S
    N300   H98       1.03466      .   S
    C179   C177      1.51332      .   S
    C180   C178      1.51317      .   S
    C177   O318      1.30340      .   S
    C177   O320      1.24524      .   S
    C178   O319      1.30347      .   S
    C178   O321      1.24416      .   S
