# CIF file generated by openbabel 2.4.90, see http://openbabel.sf.net
data_I
_chemical_name_common ''
_cell_length_a 13.396
_cell_length_b 15.744
_cell_length_c 23.744
_cell_angle_alpha 89.872
_cell_angle_beta 90.124
_cell_angle_gamma 101.064
_space_group_name_H-M_alt 'P 1'
_space_group_name_Hall 'P 1'
loop_
    _symmetry_equiv_pos_as_xyz
    x,y,z
loop_
    _atom_site_label
    _atom_site_type_symbol
    _atom_site_fract_x
    _atom_site_fract_y
    _atom_site_fract_z
    _atom_site_occupancy
    Cd0     Cd   0.86740   0.97069   0.46884   1.000
    Cd1     Cd   0.13353   0.52811   0.96840   1.000
    Cd2     Cd   0.63427   0.52841   0.96863   1.000
    Cd3     Cd   0.13338   0.02890   0.53020   1.000
    Cd4     Cd   0.63357   0.02903   0.53027   1.000
    Cd5     Cd   0.36795   0.47003   0.03030   1.000
    Cd6     Cd   0.86852   0.46983   0.03030   1.000
    Cd7     Cd   0.36785   0.97105   0.46937   1.000
    Cl8     Cl   0.02777   0.90329   0.46122   1.000
    Cl9     Cl   0.52778   0.90313   0.46154   1.000
    Cl10    Cl   0.47418   0.59639   0.96166   1.000
    Cl11    Cl   0.97369   0.59593   0.96108   1.000
    Cl12    Cl   0.47358   0.09687   0.53820   1.000
    Cl13    Cl   0.97337   0.09667   0.53758   1.000
    Cl14    Cl   0.02830   0.40176   0.03747   1.000
    Cl15    Cl   0.52873   0.40307   0.03803   1.000
loop_
    _geom_bond_atom_site_label_1
    _geom_bond_atom_site_label_2
    _geom_bond_distance
    _geom_bond_site_symmetry_2
    _ccdc_geom_bond_type
    Cd5    Cl15      2.57921      .   S
    Cd6    Cl14      2.57618  1_655   S
    Cl8    Cd0       2.57906  1_455   S
    Cl9    Cd7       2.57866      .   S
    Cd3    Cl13      2.57767  1_455   S
    Cd4    Cl12      2.57888      .   S
    Cl11   Cd1       2.57486  1_655   S
    Cl10   Cd2       2.57886      .   S
