# CIF file generated by openbabel 2.4.90, see http://openbabel.sf.net
data_I
_chemical_name_common ''
_cell_length_a 13.396
_cell_length_b 15.744
_cell_length_c 23.744
_cell_angle_alpha 89.872
_cell_angle_beta 90.124
_cell_angle_gamma 101.064
_space_group_name_H-M_alt 'P 1'
_space_group_name_Hall 'P 1'
loop_
    _symmetry_equiv_pos_as_xyz
    x,y,z
loop_
    _atom_site_label
    _atom_site_type_symbol
    _atom_site_fract_x
    _atom_site_fract_y
    _atom_site_fract_z
    _atom_site_occupancy
    N0      N    0.53479   0.33394   0.27880   1.000
    N1      N    0.96744   0.16545   0.77845   1.000
    N2      N    0.46731   0.16542   0.77850   1.000
    N3      N    0.96715   0.66505   0.72035   1.000
    N4      N    0.46730   0.66549   0.72059   1.000
    N5      N    0.03432   0.33382   0.27866   1.000
    N6      N    0.53231   0.83259   0.22122   1.000
    N7      N    0.03427   0.83248   0.22138   1.000
    Zr8     Zr   0.44782   0.93709   0.46545   1.000
    O9      O    0.29296   0.87235   0.53907   1.000
    O10     O    0.31022   0.90966   0.39682   1.000
    Zr11    Zr   0.94841   0.43579   0.03388   1.000
    O12     O    0.79346   0.37157   0.96015   1.000
    O13     O    0.81082   0.40919   0.10287   1.000
    Zr14    Zr   0.55423   0.56240   0.96514   1.000
    O15     O    0.69162   0.58925   0.89616   1.000
    O16     O    0.70909   0.62660   0.03896   1.000
    Zr17    Zr   0.94758   0.93699   0.46503   1.000
    O18     O    0.80942   0.90962   0.39644   1.000
    O19     O    0.79283   0.87236   0.53885   1.000
    Zr20    Zr   0.55357   0.06295   0.53423   1.000
    O21     O    0.70843   0.12740   0.46042   1.000
    O22     O    0.69128   0.08977   0.60292   1.000
    Zr23    Zr   0.05338   0.06279   0.53389   1.000
    O24     O    0.19110   0.08966   0.60276   1.000
    O25     O    0.20845   0.12734   0.46029   1.000
    Zr26    Zr   0.05361   0.56202   0.96474   1.000
    O27     O    0.20794   0.62635   0.03870   1.000
    O28     O    0.19127   0.58913   0.89602   1.000
    Zr29    Zr   0.44834   0.43655   0.03416   1.000
    O30     O    0.31053   0.40954   0.10296   1.000
    O31     O    0.29339   0.37198   0.96026   1.000
    O32     O    0.44645   0.05690   0.41443   1.000
    O33     O    0.44601   0.55598   0.08529   1.000
    O34     O    0.94606   0.05671   0.41403   1.000
    O35     O    0.55559   0.44253   0.91404   1.000
    O36     O    0.05523   0.44231   0.91378   1.000
    O37     O    0.55512   0.94297   0.58516   1.000
    O38     O    0.94692   0.55558   0.08517   1.000
    O39     O    0.05494   0.94274   0.58491   1.000
loop_
    _geom_bond_atom_site_label_1
    _geom_bond_atom_site_label_2
    _geom_bond_distance
    _geom_bond_site_symmetry_2
    _ccdc_geom_bond_type
    Zr8    O9        2.75570      .   S
    N3     O9        6.54054  1_655   S
    Zr8    O10       2.43406      .   S
    N7     O10       5.54306      .   S
    Zr11   O12       2.75371  1_554   S
    N2     O12       6.53934      .   S
    Zr11   O13       2.44327      .   S
    N0     O13       5.55773      .   S
    Zr14   O15       2.44136      .   S
    N3     O15       5.55234      .   S
    Zr14   O16       2.75404  1_556   S
    N7     O16       6.54253  1_455   S
    Zr17   O18       2.43871      .   S
    N6     O18       5.54866      .   S
    Zr17   O19       2.75744      .   S
    N4     O19       6.54322      .   S
    Zr20   O21       2.75772      .   S
    N5     O21       6.54355  1_455   S
    Zr20   O22       2.43551      .   S
    N1     O22       5.54437      .   S
    Zr23   O24       2.43865      .   S
    N2     O24       5.54871      .   S
    Zr23   O25       2.75678      .   S
    N0     O25       6.54391      .   S
    Zr26   O27       2.75177  1_556   S
    N6     O27       6.54010      .   S
    Zr26   O28       2.43987      .   S
    N4     O28       5.55034      .   S
    Zr29   O30       2.44251      .   S
    N5     O30       5.55589      .   S
    Zr29   O31       2.75750  1_554   S
    N1     O31       6.54264  1_655   S
    Zr8    O32       2.24252  1_565   S
    N0     O32       5.36371      .   S
    N6     O33       5.36973      .   S
    Zr29   O33       2.24563      .   S
    N5     O34       5.36070  1_455   S
    Zr17   O34       2.24140  1_565   S
    N2     O35       5.37175      .   S
    Zr14   O35       2.24888      .   S
    Zr26   O36       2.24556      .   S
    N1     O36       5.36545  1_655   S
    N4     O37       5.36580      .   S
    Zr20   O37       2.24398  1_545   S
    Zr11   O38       2.25043      .   S
    N7     O38       5.37809  1_455   S
    Zr23   O39       2.24613  1_545   S
    N3     O39       5.36822  1_655   S
