# CIF file generated by openbabel 2.4.90, see http://openbabel.sf.net
data_I
_chemical_name_common ''
_cell_length_a 13.396
_cell_length_b 15.744
_cell_length_c 23.744
_cell_angle_alpha 89.872
_cell_angle_beta 90.124
_cell_angle_gamma 101.064
_space_group_name_H-M_alt 'P 1'
_space_group_name_Hall 'P 1'
loop_
    _symmetry_equiv_pos_as_xyz
    x,y,z
loop_
    _atom_site_label
    _atom_site_type_symbol
    _atom_site_fract_x
    _atom_site_fract_y
    _atom_site_fract_z
    _atom_site_occupancy
    N0      N    0.53479   0.33394   0.27880   1.000
    N1      N    0.96744   0.16545   0.77845   1.000
    N2      N    0.46731   0.16542   0.77850   1.000
    N3      N    0.96715   0.66505   0.72035   1.000
    N4      N    0.46730   0.66549   0.72059   1.000
    N5      N    0.03432   0.33382   0.27866   1.000
    N6      N    0.53231   0.83259   0.22122   1.000
    N7      N    0.03427   0.83248   0.22138   1.000
    Zr8     Zr   0.44782   0.93709   0.46545   1.000
    O9      O    0.43498   0.05726   0.41847   1.000
    O10     O    0.45793   0.05653   0.41040   1.000
    O11     O    0.29296   0.87235   0.53907   1.000
    O12     O    0.31022   0.90966   0.39682   1.000
    Zr13    Zr   0.94841   0.43579   0.03388   1.000
    O14     O    0.79346   0.37157   0.96015   1.000
    O15     O    0.81082   0.40919   0.10287   1.000
    O16     O    0.93546   0.55598   0.08104   1.000
    O17     O    0.95839   0.55517   0.08930   1.000
    Zr18    Zr   0.55423   0.56240   0.96514   1.000
    O19     O    0.56709   0.44219   0.91807   1.000
    O20     O    0.54409   0.44287   0.91002   1.000
    O21     O    0.69162   0.58925   0.89616   1.000
    O22     O    0.70909   0.62660   0.03896   1.000
    Zr23    Zr   0.94758   0.93699   0.46503   1.000
    O24     O    0.80942   0.90962   0.39644   1.000
    O25     O    0.79283   0.87236   0.53885   1.000
    O26     O    0.95745   0.05630   0.40993   1.000
    O27     O    0.93467   0.05712   0.41814   1.000
    Zr28    Zr   0.55357   0.06295   0.53423   1.000
    O29     O    0.56659   0.94263   0.58113   1.000
    O30     O    0.70843   0.12740   0.46042   1.000
    O31     O    0.69128   0.08977   0.60292   1.000
    O32     O    0.54365   0.94331   0.58918   1.000
    Zr33    Zr   0.05338   0.06279   0.53389   1.000
    O34     O    0.19110   0.08966   0.60276   1.000
    O35     O    0.04345   0.94304   0.58893   1.000
    O36     O    0.06643   0.94243   0.58089   1.000
    O37     O    0.20845   0.12734   0.46029   1.000
    Zr38    Zr   0.05361   0.56202   0.96474   1.000
    O39     O    0.20794   0.62635   0.03870   1.000
    O40     O    0.19127   0.58913   0.89602   1.000
    O41     O    0.06673   0.44198   0.91781   1.000
    O42     O    0.04372   0.44264   0.90976   1.000
    Zr43    Zr   0.44834   0.43655   0.03416   1.000
    O44     O    0.31053   0.40954   0.10296   1.000
    O45     O    0.29339   0.37198   0.96026   1.000
    O46     O    0.45742   0.55561   0.08942   1.000
    O47     O    0.43460   0.55635   0.08115   1.000
loop_
    _geom_bond_atom_site_label_1
    _geom_bond_atom_site_label_2
    _geom_bond_distance
    _geom_bond_site_symmetry_2
    _ccdc_geom_bond_type
    Zr8    O9        2.22907  1_565   S
    N0     O9        5.42948      .   S
    Zr8    O10       2.27058  1_565   S
    N0     O10       5.30340      .   S
    Zr8    O11       2.75570      .   S
    N3     O11       6.54054  1_655   S
    Zr8    O12       2.43406      .   S
    N7     O12       5.54306      .   S
    Zr13   O14       2.75371  1_554   S
    N2     O14       6.53934      .   S
    Zr13   O15       2.44327      .   S
    N0     O15       5.55773      .   S
    Zr13   O16       2.23615      .   S
    N7     O16       5.44435  1_455   S
    Zr13   O17       2.27940      .   S
    N7     O17       5.31731  1_455   S
    Zr18   O19       2.23519      .   S
    N2     O19       5.43742      .   S
    Zr18   O20       2.27711      .   S
    N2     O20       5.31150      .   S
    Zr18   O21       2.44136      .   S
    N3     O21       5.55234      .   S
    Zr18   O22       2.75404  1_556   S
    N7     O22       6.54253  1_455   S
    Zr23   O24       2.43871      .   S
    N6     O24       5.54866      .   S
    Zr23   O25       2.75744      .   S
    N4     O25       6.54322      .   S
    Zr23   O26       2.26979  1_565   S
    N5     O26       5.30015  1_455   S
    Zr23   O27       2.22763  1_565   S
    N5     O27       5.42671  1_455   S
    Zr28   O29       2.23057  1_545   S
    N4     O29       5.43142      .   S
    Zr28   O30       2.75772      .   S
    N5     O30       6.54355  1_455   S
    Zr28   O31       2.43551      .   S
    N1     O31       5.54437      .   S
    Zr28   O32       2.27196  1_545   S
    N4     O32       5.30562      .   S
    Zr33   O34       2.43865      .   S
    N2     O34       5.54871      .   S
    Zr33   O35       2.27446  1_545   S
    N3     O35       5.30778  1_655   S
    Zr33   O36       2.23234  1_545   S
    N3     O36       5.43410  1_655   S
    Zr33   O37       2.75678      .   S
    N0     O37       6.54391      .   S
    Zr38   O39       2.75177  1_556   S
    N6     O39       6.54010      .   S
    Zr38   O40       2.43987      .   S
    N4     O40       5.55034      .   S
    Zr38   O41       2.23213      .   S
    N1     O41       5.43099  1_655   S
    Zr38   O42       2.27353      .   S
    N1     O42       5.30534  1_655   S
    Zr43   O44       2.44251      .   S
    N5     O44       5.55589      .   S
    Zr43   O45       2.75750  1_554   S
    N1     O45       6.54264  1_655   S
    Zr43   O46       2.27432      .   S
    N6     O46       5.30895      .   S
    Zr43   O47       2.23155      .   S
    N6     O47       5.43596      .   S
