# CIF file generated by openbabel 2.4.90, see http://openbabel.sf.net
data_I
_chemical_name_common ''
_cell_length_a 13.396
_cell_length_b 15.744
_cell_length_c 23.744
_cell_angle_alpha 89.872
_cell_angle_beta 90.124
_cell_angle_gamma 101.064
_space_group_name_H-M_alt 'P 1'
_space_group_name_Hall 'P 1'
loop_
    _symmetry_equiv_pos_as_xyz
    x,y,z
loop_
    _atom_site_label
    _atom_site_type_symbol
    _atom_site_fract_x
    _atom_site_fract_y
    _atom_site_fract_z
    _atom_site_occupancy
    Zr0     Zr   0.36785   0.97105   0.46937   1.000
    Zr1     Zr   0.86740   0.97069   0.46884   1.000
    Zr2     Zr   0.13353   0.52811   0.96840   1.000
    Zr3     Zr   0.63427   0.52841   0.96863   1.000
    Zr4     Zr   0.13338   0.02890   0.53020   1.000
    Zr5     Zr   0.63357   0.02903   0.53027   1.000
    Zr6     Zr   0.36795   0.47003   0.03030   1.000
    Zr7     Zr   0.86852   0.46983   0.03030   1.000
    Zr8     Zr   0.02777   0.90329   0.46122   1.000
    Zr9     Zr   0.52778   0.90313   0.46154   1.000
    Zr10    Zr   0.47418   0.59639   0.96166   1.000
    Zr11    Zr   0.97369   0.59593   0.96108   1.000
    Zr12    Zr   0.47358   0.09687   0.53820   1.000
    Zr13    Zr   0.97337   0.09667   0.53758   1.000
    Zr14    Zr   0.02830   0.40176   0.03747   1.000
    Zr15    Zr   0.52873   0.40307   0.03803   1.000
    O16     O    0.44834   0.43655   0.03416   1.000
    O17     O    0.94841   0.43579   0.03388   1.000
    O18     O    0.94758   0.93699   0.46503   1.000
    O19     O    0.44782   0.93709   0.46545   1.000
    O20     O    0.05338   0.06278   0.53389   1.000
    O21     O    0.55357   0.06295   0.53423   1.000
    O22     O    0.05361   0.56202   0.96474   1.000
    O23     O    0.55423   0.56240   0.96514   1.000
    N24     N    0.53479   0.33394   0.27880   1.000
    O25     O    0.67322   0.38258   0.17186   1.000
    O26     O    0.36352   0.19190   0.38669   1.000
    O27     O    0.42214   0.17744   0.37148   1.000
    O28     O    0.46804   0.17597   0.35534   1.000
    N29     N    0.96744   0.16545   0.77845   1.000
    O30     O    0.82898   0.11660   0.67160   1.000
    O31     O    0.13844   0.30741   0.88635   1.000
    O32     O    0.07984   0.32193   0.87087   1.000
    O33     O    0.03384   0.32327   0.85477   1.000
    N34     N    0.46731   0.16542   0.77850   1.000
    O35     O    0.32882   0.11653   0.67163   1.000
    O36     O    0.63851   0.30734   0.88641   1.000
    O37     O    0.57995   0.32199   0.87099   1.000
    O38     O    0.53394   0.32335   0.85489   1.000
    N39     N    0.96715   0.66505   0.72035   1.000
    O40     O    0.82901   0.61610   0.82718   1.000
    O41     O    0.13810   0.80762   0.61269   1.000
    O42     O    0.07948   0.82208   0.62790   1.000
    O43     O    0.03353   0.82330   0.64397   1.000
    N44     N    0.46730   0.66549   0.72059   1.000
    O45     O    0.32892   0.61624   0.82729   1.000
    O46     O    0.63808   0.80772   0.61267   1.000
    O47     O    0.57962   0.82231   0.62803   1.000
    O48     O    0.53373   0.82366   0.64413   1.000
    N49     N    0.03432   0.33382   0.27866   1.000
    O50     O    0.17272   0.38254   0.17176   1.000
    O51     O    0.86329   0.19184   0.38660   1.000
    O52     O    0.92175   0.17726   0.37124   1.000
    O53     O    0.96732   0.17560   0.35483   1.000
    N54     N    0.53231   0.83259   0.22122   1.000
    O55     O    0.67125   0.88224   0.32786   1.000
    O56     O    0.36226   0.69068   0.11266   1.000
    O57     O    0.42086   0.67616   0.12814   1.000
    O58     O    0.46651   0.67467   0.14468   1.000
    N59     N    0.03427   0.83248   0.22138   1.000
    O60     O    0.17262   0.88224   0.32818   1.000
    O61     O    0.86395   0.69081   0.11277   1.000
    O62     O    0.92252   0.67617   0.12819   1.000
    O63     O    0.96837   0.67455   0.14472   1.000
loop_
    _geom_bond_atom_site_label_1
    _geom_bond_atom_site_label_2
    _geom_bond_distance
    _geom_bond_site_symmetry_2
    _ccdc_geom_bond_type
    Zr6    O16       1.28960      .   S
    Zr15   O16       1.28960      .   S
    Zr7    O17       1.28809      .   S
    Zr14   O17       1.28809  1_455   S
    Zr8    O18       1.28953  1_455   S
    Zr1    O18       1.28953      .   S
    Zr9    O19       1.28933      .   S
    Zr0    O19       1.28933      .   S
    Zr4    O20       1.28884      .   S
    Zr13   O20       1.28884  1_655   S
    Zr5    O21       1.28944      .   S
    Zr12   O21       1.28944      .   S
    Zr11   O22       1.28743  1_655   S
    Zr2    O22       1.28743      .   S
    Zr10   O23       1.28943      .   S
    Zr3    O23       1.28943      .   S
    N24    O25       3.15269      .   S
    Zr7    O25       4.32050      .   S
    N24    O26       3.85459      .   S
    Zr4    O26       4.96702      .   S
    N24    O27       3.42844      .   S
    Zr0    O27       3.94420  1_565   S
    N24    O28       3.06941      .   S
    Zr0    O28       4.22561  1_565   S
    N29    O30       3.14788      .   S
    Zr5    O30       4.31413      .   S
    N29    O31       3.85253  1_655   S
    Zr6    O31       4.96611  1_554   S
    N29    O32       3.42625  1_655   S
    Zr2    O32       3.94299      .   S
    N29    O33       3.06829  1_655   S
    Zr2    O33       4.22301      .   S
    N34    O35       3.14872      .   S
    Zr4    O35       4.31625      .   S
    N34    O36       3.85360      .   S
    Zr7    O36       4.96777  1_554   S
    N34    O37       3.42899      .   S
    Zr3    O37       3.94772      .   S
    N34    O38       3.07072      .   S
    Zr3    O38       4.22864      .   S
    N39    O40       3.14913      .   S
    Zr3    O40       4.31586      .   S
    N39    O41       3.85273  1_655   S
    Zr0    O41       4.96387      .   S
    N39    O42       3.42891  1_655   S
    Zr4    O42       3.94664  1_545   S
    N39    O43       3.06975  1_655   S
    Zr4    O43       4.22837  1_545   S
    N44    O45       3.14900      .   S
    Zr2    O45       4.31560      .   S
    N44    O46       3.85338      .   S
    Zr1    O46       4.96633      .   S
    N44    O47       3.42852      .   S
    Zr5    O47       3.94632  1_545   S
    N44    O48       3.07018      .   S
    Zr5    O48       4.22715  1_545   S
    N49    O50       3.15194      .   S
    Zr6    O50       4.31892      .   S
    N49    O51       3.85332  1_455   S
    Zr5    O51       4.96557      .   S
    N49    O52       3.42716  1_455   S
    Zr1    O52       3.94227  1_565   S
    N49    O53       3.06750  1_455   S
    Zr1    O53       4.22462  1_565   S
    N54    O55       3.14900      .   S
    Zr1    O55       4.31591      .   S
    N54    O56       3.85645      .   S
    Zr2    O56       4.96550  1_556   S
    N54    O57       3.43196      .   S
    Zr6    O57       3.94654      .   S
    N54    O58       3.07152      .   S
    Zr6    O58       4.22967      .   S
    N59    O60       3.14811      .   S
    Zr0    O60       4.31421      .   S
    N59    O61       3.85711  1_455   S
    Zr3    O61       4.96915  1_556   S
    N59    O62       3.43360  1_455   S
    Zr7    O62       3.95017      .   S
    N59    O63       3.07341  1_455   S
    Zr7    O63       4.23410      .   S
