# CIF file generated by openbabel 2.4.90, see http://openbabel.sf.net
data_I
_chemical_name_common ''
_cell_length_a 17.202
_cell_length_b 18.548
_cell_length_c 18.556
_cell_angle_alpha 77.633
_cell_angle_beta 62.433
_cell_angle_gamma 62.424
_space_group_name_H-M_alt 'P 1'
_space_group_name_Hall 'P 1'
loop_
    _symmetry_equiv_pos_as_xyz
    x,y,z
loop_
    _atom_site_label
    _atom_site_type_symbol
    _atom_site_fract_x
    _atom_site_fract_y
    _atom_site_fract_z
    _atom_site_occupancy
    N0      N    0.74997   0.25010   0.25007   1.000
    N1      N    0.24996   0.25010   0.25007   1.000
    N2      N    0.49997   0.50009   0.75002   1.000
    N3      N    0.99995   0.00010   0.00006   1.000
    N4      N    0.99995   0.00010   0.50005   1.000
    N5      N    0.99995   0.50010   0.00004   1.000
    N6      N    0.99997   0.75009   0.00004   1.000
    N7      N    0.99997   0.75009   0.50003   1.000
    N8      N    0.99997   0.00009   0.25005   1.000
    N9      N    0.99997   0.50009   0.25005   1.000
    N10     N    0.49997   0.00009   0.25005   1.000
    N11     N    0.74997   0.75010   0.25006   1.000
    N12     N    0.24996   0.75009   0.25006   1.000
    N13     N    0.49995   0.50010   0.00006   1.000
    N14     N    0.99997   0.50009   0.75004   1.000
    N15     N    0.99997   0.00009   0.75004   1.000
    N16     N    0.49995   0.50010   0.50006   1.000
    N17     N    0.49997   0.50009   0.25005   1.000
    N18     N    0.49995   0.00010   0.00005   1.000
    N19     N    0.24996   0.75010   0.75004   1.000
    N20     N    0.74997   0.75010   0.75005   1.000
    N21     N    0.24996   0.25010   0.75004   1.000
    N22     N    0.74997   0.25010   0.75005   1.000
    N23     N    0.49995   0.00010   0.50005   1.000
    N24     N    0.49997   0.75009   0.00003   1.000
    N25     N    0.49997   0.75009   0.50004   1.000
    N26     N    0.49997   0.00009   0.75004   1.000
    N27     N    0.99995   0.50010   0.50005   1.000
    N28     N    0.49996   0.25010   0.50005   1.000
    N29     N    0.49996   0.25010   0.00004   1.000
    N30     N    0.99996   0.25010   0.00005   1.000
    N31     N    0.99996   0.25010   0.50004   1.000
    Zr32    Zr   0.18761   0.12495   0.12490   1.000
    O33     O    0.29020   0.08627   0.08623   1.000
    O34     O    0.21276   0.16373   0.16368   1.000
    O35     O    0.12363   0.08628   0.16369   1.000
    O36     O    0.12362   0.16374   0.08624   1.000
    Zr37    Zr   0.18761   0.62494   0.62488   1.000
    O38     O    0.29020   0.58627   0.58622   1.000
    O39     O    0.12363   0.66374   0.58622   1.000
    O40     O    0.12363   0.58628   0.66367   1.000
    O41     O    0.21276   0.66372   0.66366   1.000
    Zr42    Zr   0.81231   0.37526   0.37522   1.000
    O43     O    0.87630   0.33646   0.41387   1.000
    O44     O    0.78716   0.33648   0.33645   1.000
    O45     O    0.70971   0.41394   0.41389   1.000
    O46     O    0.87630   0.41391   0.33642   1.000
    Zr47    Zr   0.06251   0.37504   0.37499   1.000
    Zr48    Zr   0.68762   0.12495   0.12490   1.000
    O49     O    0.79021   0.08627   0.08623   1.000
    O50     O    0.71277   0.16373   0.16368   1.000
    O51     O    0.62363   0.16375   0.08624   1.000
    O52     O    0.62364   0.08628   0.16369   1.000
    Zr53    Zr   0.43740   0.62516   0.12513   1.000
    Zr54    Zr   0.31230   0.37526   0.37520   1.000
    O55     O    0.20970   0.41394   0.41387   1.000
    O56     O    0.28715   0.33648   0.33643   1.000
    O57     O    0.37629   0.33646   0.41386   1.000
    O58     O    0.37629   0.41391   0.33641   1.000
    Zr59    Zr   0.31230   0.37526   0.87521   1.000
    O60     O    0.20970   0.41394   0.91387   1.000
    O61     O    0.37629   0.33646   0.91385   1.000
    O62     O    0.28715   0.33648   0.83643   1.000
    O63     O    0.37629   0.41392   0.83641   1.000
    Zr64    Zr   0.43740   0.12516   0.62512   1.000
    Zr65    Zr   0.68762   0.62494   0.62488   1.000
    O66     O    0.62364   0.58628   0.66367   1.000
    O67     O    0.79021   0.58627   0.58622   1.000
    O68     O    0.71277   0.66372   0.66366   1.000
    O69     O    0.62363   0.66374   0.58623   1.000
    Zr70    Zr   0.81231   0.87525   0.87521   1.000
    O71     O    0.70971   0.91393   0.91388   1.000
    O72     O    0.78717   0.83647   0.83643   1.000
    O73     O    0.87630   0.91391   0.83641   1.000
    O74     O    0.87630   0.83645   0.91386   1.000
    Zr75    Zr   0.31230   0.87525   0.37522   1.000
    O76     O    0.28716   0.83647   0.33644   1.000
    O77     O    0.37629   0.91391   0.33642   1.000
    O78     O    0.37629   0.83645   0.41387   1.000
    O79     O    0.20970   0.91393   0.41389   1.000
    Zr80    Zr   0.68762   0.12495   0.62488   1.000
    O81     O    0.79021   0.08627   0.58622   1.000
    O82     O    0.62363   0.16374   0.58623   1.000
    O83     O    0.71277   0.16373   0.66366   1.000
    O84     O    0.62364   0.08628   0.66367   1.000
    Zr85    Zr   0.31230   0.87525   0.87521   1.000
    O86     O    0.28716   0.83647   0.83643   1.000
    O87     O    0.20971   0.91393   0.91388   1.000
    O88     O    0.37629   0.91391   0.83641   1.000
    O89     O    0.37630   0.83645   0.91386   1.000
    Zr90    Zr   0.81231   0.87525   0.37522   1.000
    O91     O    0.78717   0.83647   0.33644   1.000
    O92     O    0.70971   0.91393   0.41389   1.000
    O93     O    0.87630   0.83645   0.41386   1.000
    O94     O    0.87630   0.91391   0.33642   1.000
    Zr95    Zr   0.18761   0.62494   0.12490   1.000
    O96     O    0.12363   0.58628   0.16369   1.000
    O97     O    0.29020   0.58627   0.08623   1.000
    O98     O    0.12363   0.66374   0.08624   1.000
    O99     O    0.21276   0.66372   0.16368   1.000
    Zr100   Zr   0.06251   0.37504   0.87490   1.000
    Zr101   Zr   0.93741   0.62516   0.62512   1.000
    Zr102   Zr   0.56252   0.87503   0.87497   1.000
    Zr103   Zr   0.43740   0.12516   0.12513   1.000
    Zr104   Zr   0.81231   0.37526   0.87521   1.000
    O105    O    0.70971   0.41394   0.91388   1.000
    O106    O    0.87630   0.33646   0.91386   1.000
    O107    O    0.87630   0.41392   0.83641   1.000
    O108    O    0.78717   0.33648   0.83643   1.000
    Zr109   Zr   0.18761   0.12495   0.62488   1.000
    O110    O    0.12363   0.08629   0.66367   1.000
    O111    O    0.21276   0.16373   0.66366   1.000
    O112    O    0.12362   0.16375   0.58622   1.000
    O113    O    0.29020   0.08627   0.58622   1.000
    Zr114   Zr   0.06251   0.87503   0.37499   1.000
    Zr115   Zr   0.68762   0.62494   0.12490   1.000
    O116    O    0.62363   0.66373   0.08624   1.000
    O117    O    0.71277   0.66372   0.16368   1.000
    O118    O    0.79021   0.58626   0.08622   1.000
    O119    O    0.62364   0.58628   0.16369   1.000
    Zr120   Zr   0.93741   0.62516   0.12513   1.000
    Zr121   Zr   0.43740   0.62516   0.62512   1.000
    Zr122   Zr   0.93741   0.12516   0.12513   1.000
    Zr123   Zr   0.06251   0.87503   0.87497   1.000
    Zr124   Zr   0.56252   0.37504   0.87497   1.000
    Zr125   Zr   0.56252   0.37504   0.37499   1.000
    Zr126   Zr   0.93741   0.12517   0.62512   1.000
    Zr127   Zr   0.56252   0.87503   0.37490   1.000
    O128    O    0.04187   0.33389   0.41616   1.000
    O129    O    0.04197   0.41622   0.41617   1.000
    O130    O    0.12429   0.33389   0.33385   1.000
    O131    O    0.04187   0.41621   0.33384   1.000
    O132    O    0.45805   0.16631   0.58394   1.000
    O133    O    0.37562   0.16631   0.66625   1.000
    O134    O    0.45806   0.08398   0.66626   1.000
    O135    O    0.45794   0.08398   0.58393   1.000
    O136    O    0.54187   0.41621   0.33384   1.000
    O137    O    0.45806   0.58398   0.16627   1.000
    O138    O    0.87563   0.16631   0.66626   1.000
    O139    O    0.62430   0.33390   0.83384   1.000
    O140    O    0.45805   0.08398   0.16627   1.000
    O141    O    0.54188   0.91621   0.33378   1.000
    O142    O    0.95795   0.08398   0.08395   1.000
    O143    O    0.95806   0.08398   0.16627   1.000
    O144    O    0.95806   0.16631   0.08395   1.000
    O145    O    0.87563   0.16630   0.16627   1.000
    O146    O    0.95806   0.66631   0.08395   1.000
    O147    O    0.95795   0.58397   0.08393   1.000
    O148    O    0.95806   0.58398   0.16627   1.000
    O149    O    0.87563   0.66630   0.16627   1.000
    O150    O    0.45794   0.08398   0.08395   1.000
    O151    O    0.37562   0.16631   0.16627   1.000
    O152    O    0.45805   0.16632   0.08395   1.000
    O153    O    0.54197   0.41622   0.41617   1.000
    O154    O    0.45794   0.58398   0.58394   1.000
    O155    O    0.95806   0.16632   0.58394   1.000
    O156    O    0.95795   0.08398   0.58394   1.000
    O157    O    0.95806   0.08398   0.66626   1.000
    O158    O    0.04197   0.91622   0.41617   1.000
    O159    O    0.04187   0.91621   0.33384   1.000
    O160    O    0.12430   0.83389   0.33385   1.000
    O161    O    0.04187   0.83388   0.41616   1.000
    O162    O    0.54188   0.83388   0.41611   1.000
    O163    O    0.62431   0.83389   0.33380   1.000
    O164    O    0.54198   0.91622   0.41611   1.000
    O165    O    0.04187   0.91621   0.83382   1.000
    O166    O    0.54187   0.33389   0.41616   1.000
    O167    O    0.62430   0.33389   0.33386   1.000
    O168    O    0.95806   0.58398   0.66626   1.000
    O169    O    0.04187   0.41621   0.83378   1.000
    O170    O    0.95795   0.58398   0.58394   1.000
    O171    O    0.87563   0.66630   0.66626   1.000
    O172    O    0.95806   0.66631   0.58393   1.000
    O173    O    0.04197   0.41623   0.91611   1.000
    O174    O    0.04187   0.33389   0.91611   1.000
    O175    O    0.12429   0.33390   0.83379   1.000
    O176    O    0.04197   0.91622   0.91616   1.000
    O177    O    0.45805   0.66630   0.08395   1.000
    O178    O    0.37562   0.66630   0.16627   1.000
    O179    O    0.45794   0.58397   0.08395   1.000
    O180    O    0.04187   0.83388   0.91615   1.000
    O181    O    0.54187   0.41622   0.83381   1.000
    O182    O    0.54187   0.33389   0.91614   1.000
    O183    O    0.54197   0.41623   0.91616   1.000
    O184    O    0.54198   0.91622   0.91616   1.000
    O185    O    0.54188   0.83388   0.91615   1.000
    O186    O    0.12430   0.83389   0.83383   1.000
    O187    O    0.54188   0.91621   0.83382   1.000
    O188    O    0.45806   0.58398   0.66626   1.000
    O189    O    0.45805   0.66631   0.58394   1.000
    O190    O    0.37562   0.66630   0.66626   1.000
    O191    O    0.62431   0.83389   0.83384   1.000
loop_
    _geom_bond_atom_site_label_1
    _geom_bond_atom_site_label_2
    _geom_bond_distance
    _geom_bond_site_symmetry_2
    _ccdc_geom_bond_type
    Zr32   O33       1.42135      .   S
    N18    O33       2.92328      .   S
    Zr32   O34       1.42129      .   S
    N1     O34       2.92308      .   S
    Zr32   O35       1.42133      .   S
    N8     O35       2.92316  1_655   S
    Zr32   O36       1.42137      .   S
    N30    O36       2.92329  1_655   S
    Zr37   O38       1.42133      .   S
    N16    O38       2.92321      .   S
    Zr37   O39       1.42137      .   S
    N7     O39       2.92332  1_655   S
    Zr37   O40       1.42131      .   S
    N14    O40       2.92310  1_655   S
    Zr37   O41       1.42131      .   S
    N19    O41       2.92305      .   S
    Zr42   O43       1.42132      .   S
    N31    O43       2.92311      .   S
    Zr42   O44       1.42124      .   S
    N0     O44       2.92298      .   S
    Zr42   O45       1.42141      .   S
    N16    O45       2.92335      .   S
    Zr42   O46       1.42132      .   S
    N9     O46       2.92310      .   S
    Zr48   O49       1.42131      .   S
    N3     O49       2.92317      .   S
    Zr48   O50       1.42130      .   S
    N0     O50       2.92308      .   S
    Zr48   O51       1.42144      .   S
    N29    O51       2.92348      .   S
    Zr48   O52       1.42136      .   S
    N10    O52       2.92325      .   S
    Zr54   O55       1.42138      .   S
    N27    O55       2.92325  1_655   S
    Zr54   O56       1.42113      .   S
    N1     O56       2.92282      .   S
    Zr54   O57       1.42148      .   S
    N28    O57       2.92346      .   S
    Zr54   O58       1.42134      .   S
    N17    O58       2.92317      .   S
    Zr59   O60       1.42138      .   S
    N5     O60       2.92324  1_654   S
    Zr59   O61       1.42129      .   S
    N29    O61       2.92335  1_554   S
    Zr59   O62       1.42134      .   S
    N21    O62       2.92316      .   S
    Zr59   O63       1.42136      .   S
    N2     O63       2.92324      .   S
    Zr65   O66       1.42133      .   S
    N2     O66       2.92316      .   S
    Zr65   O67       1.42129      .   S
    N27    O67       2.92312      .   S
    Zr65   O68       1.42133      .   S
    N20    O68       2.92313      .   S
    Zr65   O69       1.42134      .   S
    N25    O69       2.92321      .   S
    Zr70   O71       1.42143      .   S
    N18    O71       2.92340  1_544   S
    Zr70   O72       1.42126      .   S
    N20    O72       2.92302      .   S
    Zr70   O73       1.42134      .   S
    N15    O73       2.92318  1_545   S
    Zr70   O74       1.42136      .   S
    N6     O74       2.92327  1_554   S
    Zr75   O76       1.42125      .   S
    N12    O76       2.92300      .   S
    Zr75   O77       1.42137      .   S
    N10    O77       2.92327  1_545   S
    Zr75   O78       1.42138      .   S
    N25    O78       2.92326      .   S
    Zr75   O79       1.42139      .   S
    N4     O79       2.92326  1_645   S
    Zr80   O81       1.42130      .   S
    N4     O81       2.92314      .   S
    Zr80   O82       1.42132      .   S
    N28    O82       2.92320      .   S
    Zr80   O83       1.42132      .   S
    N22    O83       2.92312      .   S
    Zr80   O84       1.42136      .   S
    N26    O84       2.92327      .   S
    Zr85   O86       1.42128      .   S
    N19    O86       2.92310      .   S
    Zr85   O87       1.42140      .   S
    N3     O87       2.92330  1_644   S
    Zr85   O88       1.42137      .   S
    N26    O88       2.92327  1_545   S
    Zr85   O89       1.42135      .   S
    N24    O89       2.92325  1_554   S
    Zr90   O91       1.42124      .   S
    N11    O91       2.92299      .   S
    Zr90   O92       1.42142      .   S
    N23    O92       2.92336  1_545   S
    Zr90   O93       1.42127      .   S
    N7     O93       2.92294      .   S
    Zr90   O94       1.42133      .   S
    N8     O94       2.92317  1_545   S
    Zr95   O96       1.42130      .   S
    N9     O96       2.92309  1_655   S
    Zr95   O97       1.42134      .   S
    N13    O97       2.92324      .   S
    Zr95   O98       1.42137      .   S
    N6     O98       2.92331  1_655   S
    Zr95   O99       1.42129      .   S
    N12    O99       2.92307      .   S
    Zr104  O105      1.42142      .   S
    N13    O105      2.92337  1_554   S
    Zr104  O106      1.42137      .   S
    N30    O106      2.92325  1_554   S
    Zr104  O107      1.42131      .   S
    N14    O107      2.92310      .   S
    Zr104  O108      1.42128      .   S
    N22    O108      2.92305      .   S
    Zr109  O110      1.42133      .   S
    N15    O110      2.92316  1_655   S
    Zr109  O111      1.42127      .   S
    N21    O111      2.92299      .   S
    Zr109  O112      1.42138      .   S
    N31    O112      2.92310  1_655   S
    Zr109  O113      1.42134      .   S
    N23    O113      2.92325      .   S
    Zr115  O116      1.42144      .   S
    N24    O116      2.92353      .   S
    Zr115  O117      1.42131      .   S
    N11    O117      2.92308      .   S
    Zr115  O118      1.42131      .   S
    N5     O118      2.92315      .   S
    Zr115  O119      1.42134      .   S
    N17    O119      2.92319      .   S
    Zr47   O128      1.02100      .   S
    N31    O128      2.07845  1_655   S
    Zr47   O129      1.02099      .   S
    N27    O129      2.07854  1_655   S
    Zr47   O130      1.02092      .   S
    N1     O130      2.07835      .   S
    Zr47   O131      1.02101      .   S
    N9     O131      2.07849  1_655   S
    Zr64   O132      1.02105      .   S
    N28    O132      2.07857      .   S
    Zr64   O133      1.02087      .   S
    N21    O133      2.07830      .   S
    Zr64   O134      1.02105      .   S
    N26    O134      2.07857      .   S
    Zr64   O135      1.02114      .   S
    N23    O135      2.07864      .   S
    N17    O136      2.07852      .   S
    Zr125  O136      1.02103      .   S
    N17    O137      2.07853      .   S
    Zr53   O137      1.02104      .   S
    N22    O138      2.07834      .   S
    Zr126  O138      1.02091      .   S
    N22    O139      2.07833      .   S
    Zr124  O139      1.02091      .   S
    N10    O140      2.07857      .   S
    Zr103  O140      1.02105      .   S
    N10    O141      2.07781  1_545   S
    Zr127  O141      1.02059      .   S
    Zr122  O142      1.02112      .   S
    N3     O142      2.07875      .   S
    Zr122  O143      1.02103      .   S
    N8     O143      2.07855      .   S
    Zr122  O144      1.02106      .   S
    N30    O144      2.07862      .   S
    Zr122  O145      1.02094      .   S
    N0     O145      2.07837      .   S
    Zr120  O146      1.02106      .   S
    N6     O146      2.07863      .   S
    Zr120  O147      1.02127      .   S
    N5     O147      2.07880      .   S
    Zr120  O148      1.02102      .   S
    N9     O148      2.07849      .   S
    Zr120  O149      1.02092      .   S
    N11    O149      2.07835      .   S
    Zr103  O150      1.02110      .   S
    N18    O150      2.07872      .   S
    Zr103  O151      1.02093      .   S
    N1     O151      2.07836      .   S
    Zr103  O152      1.02110      .   S
    N29    O152      2.07872      .   S
    N16    O153      2.07857      .   S
    Zr125  O153      1.02107      .   S
    N16    O154      2.07856      .   S
    Zr121  O154      1.02106      .   S
    Zr126  O155      1.02106      .   S
    N31    O155      2.07855      .   S
    Zr126  O156      1.02112      .   S
    N4     O156      2.07872      .   S
    Zr126  O157      1.02099      .   S
    N15    O157      2.07850      .   S
    Zr114  O158      1.02108      .   S
    N4     O158      2.07861  1_645   S
    Zr114  O159      1.02102      .   S
    N8     O159      2.07854  1_645   S
    Zr114  O160      1.02093      .   S
    N12    O160      2.07836      .   S
    Zr114  O161      1.02096      .   S
    N7     O161      2.07835  1_655   S
    Zr127  O162      1.02129      .   S
    N25    O162      2.07896      .   S
    Zr127  O163      1.02067      .   S
    N11    O163      2.07792      .   S
    Zr127  O164      1.02151      .   S
    N23    O164      2.07931  1_545   S
    N15    O165      2.07850  1_645   S
    Zr123  O165      1.02101      .   S
    Zr125  O166      1.02104      .   S
    N28    O166      2.07854      .   S
    Zr125  O167      1.02091      .   S
    N0     O167      2.07833      .   S
    N14    O168      2.07847      .   S
    Zr101  O168      1.02099      .   S
    N14    O169      2.07782  1_655   S
    Zr100  O169      1.02060      .   S
    Zr101  O170      1.02112      .   S
    N27    O170      2.07870      .   S
    Zr101  O171      1.02092      .   S
    N20    O171      2.07834      .   S
    Zr101  O172      1.02110      .   S
    N7     O172      2.07864      .   S
    Zr100  O173      1.02145      .   S
    N5     O173      2.07918  1_654   S
    Zr100  O174      1.02128      .   S
    N30    O174      2.07897  1_654   S
    Zr100  O175      1.02073      .   S
    N21    O175      2.07804      .   S
    N3     O176      2.07882  1_644   S
    Zr123  O176      1.02116      .   S
    Zr53   O177      1.02111      .   S
    N24    O177      2.07874      .   S
    Zr53   O178      1.02092      .   S
    N12    O178      2.07836      .   S
    Zr53   O179      1.02106      .   S
    N13    O179      2.07863      .   S
    N6     O180      2.07862  1_654   S
    Zr123  O180      1.02105      .   S
    Zr124  O181      1.02112      .   S
    N2     O181      2.07864      .   S
    Zr124  O182      1.02105      .   S
    N29    O182      2.07865  1_554   S
    Zr124  O183      1.02112      .   S
    N13    O183      2.07873  1_554   S
    N18    O184      2.07880  1_544   S
    Zr102  O184      1.02114      .   S
    N24    O185      2.07859  1_554   S
    Zr102  O185      1.02106      .   S
    Zr123  O186      1.02092      .   S
    N19    O186      2.07838      .   S
    N26    O187      2.07850  1_545   S
    Zr102  O187      1.02101      .   S
    Zr121  O188      1.02094      .   S
    N2     O188      2.07829      .   S
    Zr121  O189      1.02107      .   S
    N25    O189      2.07858      .   S
    Zr121  O190      1.02090      .   S
    N19    O190      2.07828      .   S
    Zr102  O191      1.02090      .   S
    N20    O191      2.07832      .   S
