# CIF file generated by openbabel 2.4.90, see http://openbabel.sf.net
data_I
_chemical_name_common ''
_cell_length_a 17.202
_cell_length_b 18.548
_cell_length_c 18.556
_cell_angle_alpha 77.633
_cell_angle_beta 62.433
_cell_angle_gamma 62.424
_space_group_name_H-M_alt 'P 1'
_space_group_name_Hall 'P 1'
loop_
    _symmetry_equiv_pos_as_xyz
    x,y,z
loop_
    _atom_site_label
    _atom_site_type_symbol
    _atom_site_fract_x
    _atom_site_fract_y
    _atom_site_fract_z
    _atom_site_occupancy
    N0      N    0.74997   0.25010   0.25007   1.000
    N1      N    0.24996   0.25010   0.25007   1.000
    N2      N    0.49997   0.50009   0.75002   1.000
    N3      N    0.99995   0.00010   0.00006   1.000
    N4      N    0.99995   0.00010   0.50005   1.000
    N5      N    0.99995   0.50010   0.00004   1.000
    N6      N    0.99997   0.75009   0.00004   1.000
    N7      N    0.99997   0.75009   0.50003   1.000
    N8      N    0.99997   0.00009   0.25005   1.000
    N9      N    0.99997   0.50009   0.25005   1.000
    N10     N    0.49997   0.00009   0.25005   1.000
    N11     N    0.74997   0.75010   0.25006   1.000
    N12     N    0.24996   0.75009   0.25006   1.000
    N13     N    0.49995   0.50010   0.00006   1.000
    N14     N    0.99997   0.50009   0.75004   1.000
    N15     N    0.99997   0.00009   0.75004   1.000
    N16     N    0.49995   0.50010   0.50006   1.000
    N17     N    0.49997   0.50009   0.25005   1.000
    N18     N    0.49995   0.00010   0.00005   1.000
    N19     N    0.24996   0.75010   0.75004   1.000
    N20     N    0.74997   0.75010   0.75005   1.000
    N21     N    0.24996   0.25010   0.75004   1.000
    N22     N    0.74997   0.25010   0.75005   1.000
    N23     N    0.49995   0.00010   0.50005   1.000
    N24     N    0.49997   0.75009   0.00003   1.000
    N25     N    0.49997   0.75009   0.50004   1.000
    N26     N    0.49997   0.00009   0.75004   1.000
    N27     N    0.99995   0.50010   0.50005   1.000
    N28     N    0.49996   0.25010   0.50005   1.000
    N29     N    0.49996   0.25010   0.00004   1.000
    N30     N    0.99996   0.25010   0.00005   1.000
    N31     N    0.99996   0.25010   0.50004   1.000
    Zr32    Zr   0.18761   0.12495   0.12490   1.000
    O33     O    0.29020   0.08627   0.08623   1.000
    O34     O    0.21276   0.16373   0.16368   1.000
    O35     O    0.12363   0.08628   0.16369   1.000
    O36     O    0.12362   0.16374   0.08624   1.000
    Zr37    Zr   0.18761   0.62494   0.62488   1.000
    O38     O    0.29020   0.58627   0.58622   1.000
    O39     O    0.12363   0.66374   0.58622   1.000
    O40     O    0.12363   0.58628   0.66367   1.000
    O41     O    0.21276   0.66372   0.66366   1.000
    Zr42    Zr   0.81231   0.37526   0.37522   1.000
    O43     O    0.87630   0.33646   0.41387   1.000
    O44     O    0.78716   0.33648   0.33645   1.000
    O45     O    0.70971   0.41394   0.41389   1.000
    O46     O    0.87630   0.41391   0.33642   1.000
    Zr47    Zr   0.06251   0.37504   0.37499   1.000
    O48     O    0.03267   0.41378   0.33628   1.000
    O49     O    0.05106   0.41865   0.33140   1.000
    O50     O    0.11755   0.33145   0.33141   1.000
    O51     O    0.13104   0.33634   0.33630   1.000
    O52     O    0.03035   0.41865   0.41859   1.000
    O53     O    0.03268   0.33632   0.41373   1.000
    O54     O    0.05359   0.41380   0.41374   1.000
    O55     O    0.05105   0.33145   0.41860   1.000
    Zr56    Zr   0.68762   0.12495   0.12490   1.000
    O57     O    0.79021   0.08627   0.08623   1.000
    O58     O    0.71277   0.16373   0.16368   1.000
    O59     O    0.62363   0.16375   0.08624   1.000
    O60     O    0.62364   0.08628   0.16369   1.000
    Zr61    Zr   0.43740   0.62516   0.12513   1.000
    O62     O    0.44632   0.58640   0.08638   1.000
    O63     O    0.44886   0.58154   0.16871   1.000
    O64     O    0.38237   0.66874   0.16872   1.000
    O65     O    0.46725   0.58641   0.16383   1.000
    O66     O    0.44886   0.66874   0.08151   1.000
    O67     O    0.46956   0.58155   0.08152   1.000
    O68     O    0.36888   0.66385   0.16382   1.000
    O69     O    0.46725   0.66387   0.08638   1.000
    Zr70    Zr   0.31230   0.37526   0.37520   1.000
    O71     O    0.20970   0.41394   0.41387   1.000
    O72     O    0.28715   0.33648   0.33643   1.000
    O73     O    0.37629   0.33646   0.41386   1.000
    O74     O    0.37629   0.41391   0.33641   1.000
    Zr75    Zr   0.31230   0.37526   0.87521   1.000
    O76     O    0.20970   0.41394   0.91387   1.000
    O77     O    0.37629   0.33646   0.91385   1.000
    O78     O    0.28715   0.33648   0.83643   1.000
    O79     O    0.37629   0.41392   0.83641   1.000
    Zr80    Zr   0.43740   0.12516   0.62512   1.000
    O81     O    0.36887   0.16386   0.66381   1.000
    O82     O    0.46724   0.16388   0.58638   1.000
    O83     O    0.46725   0.08642   0.66382   1.000
    O84     O    0.44886   0.16875   0.58151   1.000
    O85     O    0.44886   0.08155   0.66870   1.000
    O86     O    0.38236   0.16875   0.66870   1.000
    O87     O    0.46956   0.08155   0.58150   1.000
    O88     O    0.44632   0.08641   0.58637   1.000
    Zr89    Zr   0.68762   0.62494   0.62488   1.000
    O90     O    0.62364   0.58628   0.66367   1.000
    O91     O    0.79021   0.58627   0.58622   1.000
    O92     O    0.71277   0.66372   0.66366   1.000
    O93     O    0.62363   0.66374   0.58623   1.000
    Zr94    Zr   0.81231   0.87525   0.87521   1.000
    O95     O    0.70971   0.91393   0.91388   1.000
    O96     O    0.78717   0.83647   0.83643   1.000
    O97     O    0.87630   0.91391   0.83641   1.000
    O98     O    0.87630   0.83645   0.91386   1.000
    Zr99    Zr   0.31230   0.87525   0.37522   1.000
    O100    O    0.28716   0.83647   0.33644   1.000
    O101    O    0.37629   0.91391   0.33642   1.000
    O102    O    0.37629   0.83645   0.41387   1.000
    O103    O    0.20970   0.91393   0.41389   1.000
    Zr104   Zr   0.68762   0.12495   0.62488   1.000
    O105    O    0.79021   0.08627   0.58622   1.000
    O106    O    0.62363   0.16374   0.58623   1.000
    O107    O    0.71277   0.16373   0.66366   1.000
    O108    O    0.62364   0.08628   0.66367   1.000
    Zr109   Zr   0.31230   0.87525   0.87521   1.000
    O110    O    0.28716   0.83647   0.83643   1.000
    O111    O    0.20971   0.91393   0.91388   1.000
    O112    O    0.37629   0.91391   0.83641   1.000
    O113    O    0.37630   0.83645   0.91386   1.000
    Zr114   Zr   0.81231   0.87525   0.37522   1.000
    O115    O    0.78717   0.83647   0.33644   1.000
    O116    O    0.70971   0.91393   0.41389   1.000
    O117    O    0.87630   0.83645   0.41386   1.000
    O118    O    0.87630   0.91391   0.33642   1.000
    Zr119   Zr   0.18761   0.62494   0.12490   1.000
    O120    O    0.12363   0.58628   0.16369   1.000
    O121    O    0.29020   0.58627   0.08623   1.000
    O122    O    0.12363   0.66374   0.08624   1.000
    O123    O    0.21276   0.66372   0.16368   1.000
    Zr124   Zr   0.06251   0.37504   0.87490   1.000
    O125    O    0.05106   0.41865   0.83134   1.000
    O126    O    0.13104   0.33634   0.83624   1.000
    O127    O    0.05105   0.33145   0.91855   1.000
    O128    O    0.05359   0.41380   0.91368   1.000
    O129    O    0.03035   0.41865   0.91854   1.000
    O130    O    0.03267   0.41378   0.83622   1.000
    O131    O    0.11755   0.33145   0.83134   1.000
    O132    O    0.03268   0.33632   0.91367   1.000
    Zr133   Zr   0.93741   0.62516   0.62512   1.000
    O134    O    0.94633   0.58640   0.58637   1.000
    O135    O    0.96957   0.58155   0.58151   1.000
    O136    O    0.88238   0.66875   0.66871   1.000
    O137    O    0.94887   0.66874   0.58149   1.000
    O138    O    0.96725   0.66387   0.58637   1.000
    O139    O    0.86889   0.66386   0.66381   1.000
    O140    O    0.96726   0.58641   0.66382   1.000
    O141    O    0.94887   0.58154   0.66870   1.000
    Zr142   Zr   0.56252   0.87503   0.87497   1.000
    O143    O    0.63105   0.83634   0.83628   1.000
    O144    O    0.61756   0.83144   0.83139   1.000
    O145    O    0.53268   0.91377   0.83626   1.000
    O146    O    0.55107   0.83145   0.91858   1.000
    O147    O    0.55360   0.91379   0.91373   1.000
    O148    O    0.55107   0.91864   0.83139   1.000
    O149    O    0.53035   0.91865   0.91859   1.000
    O150    O    0.53269   0.83631   0.91371   1.000
    Zr151   Zr   0.43740   0.12516   0.12513   1.000
    O152    O    0.46724   0.16388   0.08639   1.000
    O153    O    0.38236   0.16875   0.16872   1.000
    O154    O    0.44886   0.16875   0.08151   1.000
    O155    O    0.36887   0.16386   0.16382   1.000
    O156    O    0.44632   0.08641   0.08637   1.000
    O157    O    0.46725   0.08642   0.16383   1.000
    O158    O    0.44886   0.08155   0.16871   1.000
    O159    O    0.46956   0.08155   0.08152   1.000
    Zr160   Zr   0.81231   0.37526   0.87521   1.000
    O161    O    0.70971   0.41394   0.91388   1.000
    O162    O    0.87630   0.33646   0.91386   1.000
    O163    O    0.87630   0.41392   0.83641   1.000
    O164    O    0.78717   0.33648   0.83643   1.000
    Zr165   Zr   0.18761   0.12495   0.62488   1.000
    O166    O    0.12363   0.08629   0.66367   1.000
    O167    O    0.21276   0.16373   0.66366   1.000
    O168    O    0.12362   0.16375   0.58622   1.000
    O169    O    0.29020   0.08627   0.58622   1.000
    Zr170   Zr   0.06251   0.87503   0.37499   1.000
    O171    O    0.13104   0.83633   0.33630   1.000
    O172    O    0.03268   0.83631   0.41372   1.000
    O173    O    0.05359   0.91379   0.41374   1.000
    O174    O    0.03035   0.91865   0.41860   1.000
    O175    O    0.11755   0.83144   0.33140   1.000
    O176    O    0.03268   0.91377   0.33628   1.000
    O177    O    0.05106   0.91864   0.33140   1.000
    O178    O    0.05106   0.83144   0.41860   1.000
    Zr179   Zr   0.68762   0.62494   0.12490   1.000
    O180    O    0.62363   0.66373   0.08624   1.000
    O181    O    0.71277   0.66372   0.16368   1.000
    O182    O    0.79021   0.58626   0.08622   1.000
    O183    O    0.62364   0.58628   0.16369   1.000
    Zr184   Zr   0.93741   0.62516   0.12513   1.000
    O185    O    0.94887   0.58154   0.16871   1.000
    O186    O    0.94633   0.58640   0.08637   1.000
    O187    O    0.88238   0.66875   0.16872   1.000
    O188    O    0.96726   0.58641   0.16383   1.000
    O189    O    0.96957   0.58155   0.08150   1.000
    O190    O    0.86889   0.66386   0.16382   1.000
    O191    O    0.94887   0.66874   0.08151   1.000
    O192    O    0.96725   0.66387   0.08639   1.000
    Zr193   Zr   0.43740   0.62516   0.62512   1.000
    O194    O    0.44632   0.58640   0.58637   1.000
    O195    O    0.46725   0.66387   0.58638   1.000
    O196    O    0.46956   0.58155   0.58151   1.000
    O197    O    0.36888   0.66386   0.66381   1.000
    O198    O    0.44886   0.58155   0.66869   1.000
    O199    O    0.44886   0.66874   0.58150   1.000
    O200    O    0.46725   0.58642   0.66382   1.000
    O201    O    0.38237   0.66875   0.66870   1.000
    Zr202   Zr   0.93741   0.12516   0.12513   1.000
    O203    O    0.96725   0.16388   0.08639   1.000
    O204    O    0.94633   0.08641   0.08638   1.000
    O205    O    0.96957   0.08155   0.08152   1.000
    O206    O    0.88237   0.16875   0.16872   1.000
    O207    O    0.86888   0.16386   0.16382   1.000
    O208    O    0.96725   0.08642   0.16383   1.000
    O209    O    0.94887   0.16875   0.08151   1.000
    O210    O    0.94887   0.08155   0.16871   1.000
    Zr211   Zr   0.06251   0.87503   0.87497   1.000
    O212    O    0.11755   0.83145   0.83139   1.000
    O213    O    0.05359   0.91379   0.91373   1.000
    O214    O    0.03035   0.91865   0.91859   1.000
    O215    O    0.05106   0.91865   0.83139   1.000
    O216    O    0.05106   0.83145   0.91859   1.000
    O217    O    0.03268   0.83632   0.91371   1.000
    O218    O    0.13104   0.83634   0.83628   1.000
    O219    O    0.03268   0.91377   0.83626   1.000
    Zr220   Zr   0.56252   0.37504   0.87497   1.000
    O221    O    0.63105   0.33634   0.83628   1.000
    O222    O    0.53035   0.41865   0.91859   1.000
    O223    O    0.53268   0.33632   0.91370   1.000
    O224    O    0.53268   0.41378   0.83626   1.000
    O225    O    0.55359   0.41380   0.91373   1.000
    O226    O    0.55107   0.41865   0.83137   1.000
    O227    O    0.61756   0.33145   0.83139   1.000
    O228    O    0.55106   0.33146   0.91859   1.000
    Zr229   Zr   0.56252   0.37504   0.37499   1.000
    O230    O    0.55359   0.41380   0.41374   1.000
    O231    O    0.53035   0.41865   0.41860   1.000
    O232    O    0.53268   0.41377   0.33628   1.000
    O233    O    0.55106   0.33145   0.41860   1.000
    O234    O    0.55107   0.41865   0.33140   1.000
    O235    O    0.63105   0.33634   0.33630   1.000
    O236    O    0.61756   0.33145   0.33141   1.000
    O237    O    0.53268   0.33632   0.41373   1.000
    Zr238   Zr   0.93741   0.12517   0.62512   1.000
    O239    O    0.94887   0.08155   0.66870   1.000
    O240    O    0.88237   0.16875   0.66871   1.000
    O241    O    0.96725   0.16388   0.58637   1.000
    O242    O    0.94633   0.08641   0.58637   1.000
    O243    O    0.86888   0.16386   0.66381   1.000
    O244    O    0.96957   0.08155   0.58151   1.000
    O245    O    0.96725   0.08642   0.66382   1.000
    O246    O    0.94887   0.16875   0.58150   1.000
    Zr247   Zr   0.56252   0.87503   0.37490   1.000
    O248    O    0.63105   0.83634   0.33624   1.000
    O249    O    0.53035   0.91865   0.41854   1.000
    O250    O    0.53269   0.83631   0.41367   1.000
    O251    O    0.61756   0.83144   0.33135   1.000
    O252    O    0.55107   0.91864   0.33135   1.000
    O253    O    0.53268   0.91377   0.33622   1.000
    O254    O    0.55360   0.91379   0.41369   1.000
    O255    O    0.55107   0.83145   0.41854   1.000
loop_
    _geom_bond_atom_site_label_1
    _geom_bond_atom_site_label_2
    _geom_bond_distance
    _geom_bond_site_symmetry_2
    _ccdc_geom_bond_type
    Zr32   O33       1.42135      .   S
    N18    O33       2.92328      .   S
    Zr32   O34       1.42129      .   S
    N1     O34       2.92308      .   S
    Zr32   O35       1.42133      .   S
    N8     O35       2.92316  1_655   S
    Zr32   O36       1.42137      .   S
    N30    O36       2.92329  1_655   S
    Zr37   O38       1.42133      .   S
    N16    O38       2.92321      .   S
    Zr37   O39       1.42137      .   S
    N7     O39       2.92332  1_655   S
    Zr37   O40       1.42131      .   S
    N14    O40       2.92310  1_655   S
    Zr37   O41       1.42131      .   S
    N19    O41       2.92305      .   S
    Zr42   O43       1.42132      .   S
    N31    O43       2.92311      .   S
    Zr42   O44       1.42124      .   S
    N0     O44       2.92298      .   S
    Zr42   O45       1.42141      .   S
    N16    O45       2.92335      .   S
    Zr42   O46       1.42132      .   S
    N9     O46       2.92310      .   S
    Zr47   O48       1.03652      .   S
    N9     O48       2.08367  1_655   S
    Zr47   O49       1.03294      .   S
    N9     O49       2.08685  1_655   S
    Zr47   O50       1.03284      .   S
    N1     O50       2.08673      .   S
    Zr47   O51       1.03645      .   S
    N1     O51       2.08352      .   S
    Zr47   O52       1.03285      .   S
    N27    O52       2.08698  1_655   S
    Zr47   O53       1.03652      .   S
    N31    O53       2.08362  1_655   S
    Zr47   O54       1.03658      .   S
    N27    O54       2.08365  1_655   S
    Zr47   O55       1.03291      .   S
    N31    O55       2.08683  1_655   S
    Zr56   O57       1.42131      .   S
    N3     O57       2.92317      .   S
    Zr56   O58       1.42130      .   S
    N0     O58       2.92308      .   S
    Zr56   O59       1.42144      .   S
    N29    O59       2.92348      .   S
    Zr56   O60       1.42136      .   S
    N10    O60       2.92325      .   S
    Zr61   O62       1.03662      .   S
    N13    O62       2.08378      .   S
    Zr61   O63       1.03295      .   S
    N17    O63       2.08691      .   S
    Zr61   O64       1.03285      .   S
    N12    O64       2.08673      .   S
    Zr61   O65       1.03657      .   S
    N17    O65       2.08370      .   S
    Zr61   O66       1.03301      .   S
    N24    O66       2.08713      .   S
    Zr61   O67       1.03295      .   S
    N13    O67       2.08704      .   S
    Zr61   O68       1.03644      .   S
    N12    O68       2.08354      .   S
    Zr61   O69       1.03665      .   S
    N24    O69       2.08391      .   S
    Zr70   O71       1.42138      .   S
    N27    O71       2.92325  1_655   S
    Zr70   O72       1.42113      .   S
    N1     O72       2.92282      .   S
    Zr70   O73       1.42148      .   S
    N28    O73       2.92346      .   S
    Zr70   O74       1.42134      .   S
    N17    O74       2.92317      .   S
    Zr75   O76       1.42138      .   S
    N5     O76       2.92324  1_654   S
    Zr75   O77       1.42129      .   S
    N29    O77       2.92335  1_554   S
    Zr75   O78       1.42134      .   S
    N21    O78       2.92316      .   S
    Zr75   O79       1.42136      .   S
    N2     O79       2.92324      .   S
    Zr80   O81       1.03642      .   S
    N21    O81       2.08345      .   S
    Zr80   O82       1.03660      .   S
    N28    O82       2.08372      .   S
    Zr80   O83       1.03658      .   S
    N26    O83       2.08374      .   S
    Zr80   O84       1.03295      .   S
    N28    O84       2.08696      .   S
    Zr80   O85       1.03297      .   S
    N26    O85       2.08695      .   S
    Zr80   O86       1.03275      .   S
    N21    O86       2.08670      .   S
    Zr80   O87       1.03307      .   S
    N23    O87       2.08700      .   S
    Zr80   O88       1.03665      .   S
    N23    O88       2.08383      .   S
    Zr89   O90       1.42133      .   S
    N2     O90       2.92316      .   S
    Zr89   O91       1.42129      .   S
    N27    O91       2.92312      .   S
    Zr89   O92       1.42133      .   S
    N20    O92       2.92313      .   S
    Zr89   O93       1.42134      .   S
    N25    O93       2.92321      .   S
    Zr94   O95       1.42143      .   S
    N18    O95       2.92340  1_544   S
    Zr94   O96       1.42126      .   S
    N20    O96       2.92302      .   S
    Zr94   O97       1.42134      .   S
    N15    O97       2.92318  1_545   S
    Zr94   O98       1.42136      .   S
    N6     O98       2.92327  1_554   S
    Zr99   O100      1.42125      .   S
    N12    O100      2.92300      .   S
    Zr99   O101      1.42137      .   S
    N10    O101      2.92327  1_545   S
    Zr99   O102      1.42138      .   S
    N25    O102      2.92326      .   S
    Zr99   O103      1.42139      .   S
    N4     O103      2.92326  1_645   S
    Zr104  O105      1.42130      .   S
    N4     O105      2.92314      .   S
    Zr104  O106      1.42132      .   S
    N28    O106      2.92320      .   S
    Zr104  O107      1.42132      .   S
    N22    O107      2.92312      .   S
    Zr104  O108      1.42136      .   S
    N26    O108      2.92327      .   S
    Zr109  O110      1.42128      .   S
    N19    O110      2.92310      .   S
    Zr109  O111      1.42140      .   S
    N3     O111      2.92330  1_644   S
    Zr109  O112      1.42137      .   S
    N26    O112      2.92327  1_545   S
    Zr109  O113      1.42135      .   S
    N24    O113      2.92325  1_554   S
    Zr114  O115      1.42124      .   S
    N11    O115      2.92299      .   S
    Zr114  O116      1.42142      .   S
    N23    O116      2.92336  1_545   S
    Zr114  O117      1.42127      .   S
    N7     O117      2.92294      .   S
    Zr114  O118      1.42133      .   S
    N8     O118      2.92317  1_545   S
    Zr119  O120      1.42130      .   S
    N9     O120      2.92309  1_655   S
    Zr119  O121      1.42134      .   S
    N13    O121      2.92324      .   S
    Zr119  O122      1.42137      .   S
    N6     O122      2.92331  1_655   S
    Zr119  O123      1.42129      .   S
    N12    O123      2.92307      .   S
    Zr124  O125      1.03255      .   S
    N14    O125      2.08617  1_655   S
    Zr124  O126      1.03631      .   S
    N21    O126      2.08317      .   S
    Zr124  O127      1.03325      .   S
    N30    O127      2.08730  1_654   S
    Zr124  O128      1.03701      .   S
    N5     O128      2.08432  1_654   S
    Zr124  O129      1.03332      .   S
    N5     O129      2.08759  1_654   S
    Zr124  O130      1.03610      .   S
    N14    O130      2.08302  1_655   S
    Zr124  O131      1.03260      .   S
    N21    O131      2.08646      .   S
    Zr124  O132      1.03674      .   S
    N30    O132      2.08419  1_654   S
    Zr133  O134      1.03668      .   S
    N27    O134      2.08385      .   S
    Zr133  O135      1.03300      .   S
    N27    O135      2.08711      .   S
    Zr133  O136      1.03284      .   S
    N20    O136      2.08672      .   S
    Zr133  O137      1.03305      .   S
    N7     O137      2.08699      .   S
    Zr133  O138      1.03660      .   S
    N7     O138      2.08384      .   S
    Zr133  O139      1.03644      .   S
    N20    O139      2.08352      .   S
    Zr133  O140      1.03650      .   S
    N14    O140      2.08366      .   S
    Zr133  O141      1.03292      .   S
    N14    O141      2.08684      .   S
    Zr142  O143      1.03644      .   S
    N20    O143      2.08348      .   S
    Zr142  O144      1.03282      .   S
    N20    O144      2.08670      .   S
    Zr142  O145      1.03653      .   S
    N26    O145      2.08368  1_545   S
    Zr142  O146      1.03296      .   S
    N24    O146      2.08698  1_554   S
    Zr142  O147      1.03669      .   S
    N18    O147      2.08395  1_544   S
    Zr142  O148      1.03293      .   S
    N26    O148      2.08687  1_545   S
    Zr142  O149      1.03304      .   S
    N18    O149      2.08720  1_544   S
    Zr142  O150      1.03660      .   S
    N24    O150      2.08375  1_554   S
    Zr151  O152      1.03664      .   S
    N29    O152      2.08388      .   S
    Zr151  O153      1.03286      .   S
    N1     O153      2.08673      .   S
    Zr151  O154      1.03301      .   S
    N29    O154      2.08710      .   S
    Zr151  O155      1.03644      .   S
    N1     O155      2.08355      .   S
    Zr151  O156      1.03667      .   S
    N18    O156      2.08386      .   S
    Zr151  O157      1.03658      .   S
    N10    O157      2.08374      .   S
    Zr151  O158      1.03296      .   S
    N10    O158      2.08695      .   S
    Zr151  O159      1.03298      .   S
    N18    O159      2.08714      .   S
    Zr160  O161      1.42142      .   S
    N13    O161      2.92337  1_554   S
    Zr160  O162      1.42137      .   S
    N30    O162      2.92325  1_554   S
    Zr160  O163      1.42131      .   S
    N14    O163      2.92310      .   S
    Zr160  O164      1.42128      .   S
    N22    O164      2.92305      .   S
    Zr165  O166      1.42133      .   S
    N15    O166      2.92316  1_655   S
    Zr165  O167      1.42127      .   S
    N21    O167      2.92299      .   S
    Zr165  O168      1.42138      .   S
    N31    O168      2.92310  1_655   S
    Zr165  O169      1.42134      .   S
    N23    O169      2.92325      .   S
    Zr170  O171      1.03646      .   S
    N12    O171      2.08353      .   S
    Zr170  O172      1.03650      .   S
    N7     O172      2.08351  1_655   S
    Zr170  O173      1.03663      .   S
    N4     O173      2.08376  1_645   S
    Zr170  O174      1.03297      .   S
    N4     O174      2.08701  1_645   S
    Zr170  O175      1.03285      .   S
    N12    O175      2.08674      .   S
    Zr170  O176      1.03653      .   S
    N8     O176      2.08373  1_645   S
    Zr170  O177      1.03295      .   S
    N8     O177      2.08690  1_645   S
    Zr170  O178      1.03286      .   S
    N7     O178      2.08675  1_655   S
    Zr179  O180      1.42144      .   S
    N24    O180      2.92353      .   S
    Zr179  O181      1.42131      .   S
    N11    O181      2.92308      .   S
    Zr179  O182      1.42131      .   S
    N5     O182      2.92315      .   S
    Zr179  O183      1.42134      .   S
    N17    O183      2.92319      .   S
    Zr184  O185      1.03294      .   S
    N9     O185      2.08685      .   S
    Zr184  O186      1.03682      .   S
    N5     O186      2.08395      .   S
    Zr184  O187      1.03285      .   S
    N11    O187      2.08672      .   S
    Zr184  O188      1.03653      .   S
    N9     O188      2.08367      .   S
    Zr184  O189      1.03315      .   S
    N5     O189      2.08719      .   S
    Zr184  O190      1.03644      .   S
    N11    O190      2.08352      .   S
    Zr184  O191      1.03299      .   S
    N6     O191      2.08700      .   S
    Zr184  O192      1.03658      .   S
    N6     O192      2.08381      .   S
    Zr193  O194      1.03662      .   S
    N16    O194      2.08371      .   S
    Zr193  O195      1.03661      .   S
    N25    O195      2.08374      .   S
    Zr193  O196      1.03295      .   S
    N16    O196      2.08696      .   S
    Zr193  O197      1.03642      .   S
    N19    O197      2.08345      .   S
    Zr193  O198      1.03286      .   S
    N2     O198      2.08667      .   S
    Zr193  O199      1.03297      .   S
    N25    O199      2.08698      .   S
    Zr193  O200      1.03647      .   S
    N2     O200      2.08346      .   S
    Zr193  O201      1.03282      .   S
    N19    O201      2.08666      .   S
    Zr202  O203      1.03658      .   S
    N30    O203      2.08379      .   S
    Zr202  O204      1.03668      .   S
    N3     O204      2.08388      .   S
    Zr202  O205      1.03299      .   S
    N3     O205      2.08716      .   S
    Zr202  O206      1.03287      .   S
    N0     O206      2.08675      .   S
    Zr202  O207      1.03646      .   S
    N0     O207      2.08356      .   S
    Zr202  O208      1.03654      .   S
    N8     O208      2.08374      .   S
    Zr202  O209      1.03297      .   S
    N30    O209      2.08699      .   S
    Zr202  O210      1.03296      .   S
    N8     O210      2.08691      .   S
    Zr211  O212      1.03284      .   S
    N19    O212      2.08675      .   S
    Zr211  O213      1.03671      .   S
    N3     O213      2.08397  1_644   S
    Zr211  O214      1.03305      .   S
    N3     O214      2.08722  1_644   S
    Zr211  O215      1.03294      .   S
    N15    O215      2.08686  1_645   S
    Zr211  O216      1.03298      .   S
    N6     O216      2.08698  1_654   S
    Zr211  O217      1.03657      .   S
    N6     O217      2.08380  1_654   S
    Zr211  O218      1.03645      .   S
    N19    O218      2.08355      .   S
    Zr211  O219      1.03652      .   S
    N15    O219      2.08369  1_645   S
    Zr220  O221      1.03644      .   S
    N22    O221      2.08350      .   S
    Zr220  O222      1.03302      .   S
    N13    O222      2.08713  1_554   S
    Zr220  O223      1.03658      .   S
    N29    O223      2.08383  1_554   S
    Zr220  O224      1.03660      .   S
    N2     O224      2.08386      .   S
    Zr220  O225      1.03667      .   S
    N13    O225      2.08388  1_554   S
    Zr220  O226      1.03308      .   S
    N2     O226      2.08698      .   S
    Zr220  O227      1.03283      .   S
    N22    O227      2.08671      .   S
    Zr220  O228      1.03297      .   S
    N29    O228      2.08702  1_554   S
    Zr229  O230      1.03662      .   S
    N16    O230      2.08373      .   S
    Zr229  O231      1.03297      .   S
    N16    O231      2.08697      .   S
    Zr229  O232      1.03656      .   S
    N17    O232      2.08369      .   S
    Zr229  O233      1.03294      .   S
    N28    O233      2.08693      .   S
    Zr229  O234      1.03294      .   S
    N17    O234      2.08690      .   S
    Zr229  O235      1.03645      .   S
    N0     O235      2.08350      .   S
    Zr229  O236      1.03283      .   S
    N0     O236      2.08672      .   S
    Zr229  O237      1.03658      .   S
    N28    O237      2.08370      .   S
    Zr238  O239      1.03291      .   S
    N15    O239      2.08687      .   S
    Zr238  O240      1.03284      .   S
    N22    O240      2.08672      .   S
    Zr238  O241      1.03659      .   S
    N31    O241      2.08370      .   S
    Zr238  O242      1.03668      .   S
    N4     O242      2.08387      .   S
    Zr238  O243      1.03644      .   S
    N22    O243      2.08352      .   S
    Zr238  O244      1.03300      .   S
    N4     O244      2.08713      .   S
    Zr238  O245      1.03651      .   S
    N15    O245      2.08367      .   S
    Zr238  O246      1.03296      .   S
    N31    O246      2.08694      .   S
    Zr247  O248      1.03626      .   S
    N11    O248      2.08304      .   S
    Zr247  O249      1.03338      .   S
    N23    O249      2.08773  1_545   S
    Zr247  O250      1.03678      .   S
    N25    O250      2.08416      .   S
    Zr247  O251      1.03253      .   S
    N11    O251      2.08636      .   S
    Zr247  O252      1.03254      .   S
    N10    O252      2.08617  1_545   S
    Zr247  O253      1.03610      .   S
    N10    O253      2.08301  1_545   S
    Zr247  O254      1.03708      .   S
    N23    O254      2.08445  1_545   S
    Zr247  O255      1.03325      .   S
    N25    O255      2.08730      .   S
