# CIF file generated by openbabel 2.4.90, see http://openbabel.sf.net
data_I
_chemical_name_common ''
_cell_length_a 17.202
_cell_length_b 18.548
_cell_length_c 18.556
_cell_angle_alpha 77.633
_cell_angle_beta 62.433
_cell_angle_gamma 62.424
_space_group_name_H-M_alt 'P 1'
_space_group_name_Hall 'P 1'
loop_
    _symmetry_equiv_pos_as_xyz
    x,y,z
loop_
    _atom_site_label
    _atom_site_type_symbol
    _atom_site_fract_x
    _atom_site_fract_y
    _atom_site_fract_z
    _atom_site_occupancy
    Zr0     Zr   0.31230   0.37526   0.37520   1.000
    Zr1     Zr   0.31230   0.37526   0.87521   1.000
    Zr2     Zr   0.31230   0.87525   0.37522   1.000
    Zr3     Zr   0.31230   0.87525   0.87521   1.000
    Zr4     Zr   0.81231   0.37526   0.37522   1.000
    Zr5     Zr   0.81231   0.37526   0.87521   1.000
    Zr6     Zr   0.81231   0.87525   0.37522   1.000
    Zr7     Zr   0.81231   0.87525   0.87521   1.000
    Zr8     Zr   0.18761   0.12495   0.12490   1.000
    Zr9     Zr   0.18761   0.12495   0.62488   1.000
    Zr10    Zr   0.18761   0.62494   0.12490   1.000
    Zr11    Zr   0.18761   0.62494   0.62488   1.000
    Zr12    Zr   0.68762   0.12495   0.12490   1.000
    Zr13    Zr   0.68762   0.12495   0.62488   1.000
    Zr14    Zr   0.68762   0.62494   0.12490   1.000
    Zr15    Zr   0.68762   0.62494   0.62488   1.000
    Zr16    Zr   0.06251   0.37504   0.37499   1.000
    Zr17    Zr   0.06251   0.37504   0.87490   1.000
    Zr18    Zr   0.06251   0.87503   0.37499   1.000
    Zr19    Zr   0.06251   0.87503   0.87497   1.000
    Zr20    Zr   0.56252   0.37504   0.37499   1.000
    Zr21    Zr   0.56252   0.37504   0.87497   1.000
    Zr22    Zr   0.56252   0.87503   0.37490   1.000
    Zr23    Zr   0.56252   0.87503   0.87497   1.000
    Zr24    Zr   0.43740   0.12516   0.12513   1.000
    Zr25    Zr   0.43740   0.12516   0.62512   1.000
    Zr26    Zr   0.43740   0.62516   0.12513   1.000
    Zr27    Zr   0.43740   0.62516   0.62512   1.000
    Zr28    Zr   0.93741   0.12516   0.12513   1.000
    Zr29    Zr   0.93741   0.12517   0.62512   1.000
    Zr30    Zr   0.93741   0.62516   0.12513   1.000
    Zr31    Zr   0.93741   0.62516   0.62512   1.000
    N32     N    0.74997   0.25010   0.25007   1.000
    O33     O    0.76202   0.29770   0.29767   1.000
    O34     O    0.69957   0.29764   0.29762   1.000
    O35     O    0.82734   0.21234   0.21231   1.000
    O36     O    0.80036   0.20256   0.20252   1.000
    O37     O    0.73791   0.20250   0.20246   1.000
    O38     O    0.67259   0.28786   0.28783   1.000
    N39     N    0.24996   0.25010   0.25007   1.000
    O40     O    0.30035   0.20256   0.20252   1.000
    O41     O    0.23790   0.20250   0.20246   1.000
    O42     O    0.32733   0.21234   0.21231   1.000
    O43     O    0.17258   0.28786   0.28782   1.000
    O44     O    0.26201   0.29770   0.29767   1.000
    O45     O    0.19956   0.29764   0.29761   1.000
    N46     N    0.49997   0.50009   0.75002   1.000
    O47     O    0.55965   0.54762   0.70245   1.000
    O48     O    0.49710   0.54767   0.70251   1.000
    O49     O    0.53961   0.46226   0.78778   1.000
    O50     O    0.44028   0.45257   0.79760   1.000
    O51     O    0.50284   0.45252   0.79754   1.000
    O52     O    0.46032   0.53793   0.71227   1.000
    N53     N    0.99995   0.00010   0.00006   1.000
    O54     O    0.00172   0.03794   0.03790   1.000
    O55     O    0.10711   0.95261   0.95255   1.000
    O56     O    0.04466   0.95255   0.95249   1.000
    O57     O    0.99818   0.96226   0.96221   1.000
    O58     O    0.89280   0.04759   0.04756   1.000
    O59     O    0.95524   0.04765   0.04762   1.000
    N60     N    0.99995   0.00010   0.50005   1.000
    O61     O    0.00173   0.03794   0.53789   1.000
    O62     O    0.10711   0.95261   0.45255   1.000
    O63     O    0.04466   0.95255   0.45250   1.000
    O64     O    0.89280   0.04760   0.54755   1.000
    O65     O    0.95525   0.04765   0.54761   1.000
    O66     O    0.99818   0.96226   0.46221   1.000
    N67     N    0.99995   0.50010   0.00004   1.000
    O68     O    0.00173   0.53794   0.03788   1.000
    O69     O    0.10711   0.45261   0.95254   1.000
    O70     O    0.04466   0.45256   0.95246   1.000
    O71     O    0.89280   0.54759   0.04754   1.000
    O72     O    0.95525   0.54764   0.04760   1.000
    O73     O    0.99818   0.46227   0.96218   1.000
    N74     N    0.99997   0.75009   0.00004   1.000
    O75     O    0.03961   0.78786   0.96220   1.000
    O76     O    0.99709   0.70259   0.04764   1.000
    O77     O    0.05964   0.70253   0.04758   1.000
    O78     O    0.96033   0.71232   0.03789   1.000
    O79     O    0.94030   0.79765   0.95251   1.000
    O80     O    0.00285   0.79760   0.95245   1.000
    N81     N    0.99997   0.75009   0.50003   1.000
    O82     O    0.03961   0.78786   0.46220   1.000
    O83     O    0.05964   0.70253   0.54757   1.000
    O84     O    0.99709   0.70259   0.54763   1.000
    O85     O    0.96033   0.71232   0.53787   1.000
    O86     O    0.94030   0.79765   0.45251   1.000
    O87     O    0.00285   0.79759   0.45245   1.000
    N88     N    0.99997   0.00009   0.25005   1.000
    O89     O    0.00284   0.95251   0.29757   1.000
    O90     O    0.94029   0.95256   0.29763   1.000
    O91     O    0.05965   0.04762   0.20248   1.000
    O92     O    0.99710   0.04767   0.20254   1.000
    O93     O    0.03961   0.96226   0.28782   1.000
    O94     O    0.96033   0.03793   0.21229   1.000
    N95     N    0.99997   0.50009   0.25005   1.000
    O96     O    0.00284   0.45251   0.29757   1.000
    O97     O    0.94029   0.45257   0.29763   1.000
    O98     O    0.99710   0.54767   0.20254   1.000
    O99     O    0.05965   0.54761   0.20248   1.000
    O100    O    0.03961   0.46226   0.28782   1.000
    O101    O    0.96033   0.53793   0.21229   1.000
    N102    N    0.49997   0.00009   0.25005   1.000
    O103    O    0.46032   0.03793   0.21229   1.000
    O104    O    0.53961   0.96226   0.28779   1.000
    O105    O    0.50284   0.95251   0.29755   1.000
    O106    O    0.44028   0.95257   0.29763   1.000
    O107    O    0.49710   0.04767   0.20254   1.000
    O108    O    0.55965   0.04762   0.20248   1.000
    N109    N    0.74997   0.75010   0.25006   1.000
    O110    O    0.69958   0.79764   0.29758   1.000
    O111    O    0.76202   0.79769   0.29767   1.000
    O112    O    0.82734   0.71233   0.21230   1.000
    O113    O    0.73792   0.70250   0.20246   1.000
    O114    O    0.80036   0.70255   0.20251   1.000
    O115    O    0.67260   0.78786   0.28780   1.000
    N116    N    0.24996   0.75009   0.25006   1.000
    O117    O    0.19957   0.79764   0.29761   1.000
    O118    O    0.26201   0.79769   0.29767   1.000
    O119    O    0.23791   0.70250   0.20246   1.000
    O120    O    0.30035   0.70255   0.20251   1.000
    O121    O    0.32733   0.71233   0.21230   1.000
    O122    O    0.17259   0.78785   0.28782   1.000
    N123    N    0.49995   0.50010   0.00006   1.000
    O124    O    0.49818   0.46227   0.96221   1.000
    O125    O    0.39279   0.54759   0.04757   1.000
    O126    O    0.45524   0.54764   0.04762   1.000
    O127    O    0.60712   0.45261   0.95255   1.000
    O128    O    0.54467   0.45256   0.95249   1.000
    O129    O    0.50173   0.53794   0.03790   1.000
    N130    N    0.99997   0.50009   0.75004   1.000
    O131    O    0.94029   0.45257   0.79761   1.000
    O132    O    0.00284   0.45252   0.79754   1.000
    O133    O    0.96033   0.53793   0.71228   1.000
    O134    O    0.03961   0.46226   0.78778   1.000
    O135    O    0.99710   0.54767   0.70252   1.000
    O136    O    0.05965   0.54762   0.70246   1.000
    N137    N    0.99997   0.00009   0.75004   1.000
    O138    O    0.94029   0.95257   0.79761   1.000
    O139    O    0.00284   0.95251   0.79755   1.000
    O140    O    0.05965   0.04762   0.70247   1.000
    O141    O    0.99710   0.04768   0.70252   1.000
    O142    O    0.03961   0.96226   0.78780   1.000
    O143    O    0.96033   0.03793   0.71227   1.000
    N144    N    0.49995   0.50010   0.50006   1.000
    O145    O    0.49818   0.46227   0.46222   1.000
    O146    O    0.60711   0.45261   0.45256   1.000
    O147    O    0.54467   0.45256   0.45250   1.000
    O148    O    0.50173   0.53794   0.53790   1.000
    O149    O    0.39279   0.54759   0.54756   1.000
    O150    O    0.45524   0.54765   0.54762   1.000
    N151    N    0.49997   0.50009   0.25005   1.000
    O152    O    0.46032   0.53792   0.21229   1.000
    O153    O    0.50284   0.45251   0.29757   1.000
    O154    O    0.44028   0.45257   0.29762   1.000
    O155    O    0.53961   0.46226   0.28782   1.000
    O156    O    0.55965   0.54761   0.20248   1.000
    O157    O    0.49710   0.54767   0.20254   1.000
    N158    N    0.49995   0.00010   0.00005   1.000
    O159    O    0.39279   0.04759   0.04756   1.000
    O160    O    0.45524   0.04765   0.04762   1.000
    O161    O    0.50173   0.03794   0.03790   1.000
    O162    O    0.49818   0.96226   0.96220   1.000
    O163    O    0.60712   0.95261   0.95255   1.000
    O164    O    0.54467   0.95255   0.95249   1.000
    N165    N    0.24996   0.75010   0.75004   1.000
    O166    O    0.26201   0.79769   0.79765   1.000
    O167    O    0.19957   0.79764   0.79759   1.000
    O168    O    0.32733   0.71234   0.71229   1.000
    O169    O    0.30035   0.70255   0.70250   1.000
    O170    O    0.23791   0.70250   0.70244   1.000
    O171    O    0.17259   0.78786   0.78780   1.000
    N172    N    0.74997   0.75010   0.75005   1.000
    O173    O    0.80036   0.70255   0.70250   1.000
    O174    O    0.73792   0.70250   0.70244   1.000
    O175    O    0.82734   0.71233   0.71229   1.000
    O176    O    0.76203   0.79769   0.79766   1.000
    O177    O    0.69958   0.79764   0.79760   1.000
    O178    O    0.67260   0.78786   0.78781   1.000
    N179    N    0.24996   0.25010   0.75004   1.000
    O180    O    0.26201   0.29770   0.79765   1.000
    O181    O    0.19956   0.29764   0.79757   1.000
    O182    O    0.23790   0.20250   0.70244   1.000
    O183    O    0.30035   0.20256   0.70250   1.000
    O184    O    0.32733   0.21234   0.71228   1.000
    O185    O    0.17258   0.28786   0.78778   1.000
    N186    N    0.74997   0.25010   0.75005   1.000
    O187    O    0.69957   0.29764   0.79760   1.000
    O188    O    0.76202   0.29770   0.79766   1.000
    O189    O    0.82734   0.21234   0.71229   1.000
    O190    O    0.80036   0.20256   0.70250   1.000
    O191    O    0.73791   0.20250   0.70244   1.000
    O192    O    0.67259   0.28786   0.78781   1.000
    N193    N    0.49995   0.00010   0.50005   1.000
    O194    O    0.39279   0.04760   0.54755   1.000
    O195    O    0.45524   0.04765   0.54761   1.000
    O196    O    0.50173   0.03794   0.53788   1.000
    O197    O    0.49818   0.96226   0.46219   1.000
    O198    O    0.60712   0.95261   0.45255   1.000
    O199    O    0.54467   0.95255   0.45247   1.000
    N200    N    0.49997   0.75009   0.00003   1.000
    O201    O    0.46032   0.71232   0.03789   1.000
    O202    O    0.53961   0.78786   0.96220   1.000
    O203    O    0.55964   0.70253   0.04758   1.000
    O204    O    0.49709   0.70259   0.04764   1.000
    O205    O    0.44029   0.79765   0.95250   1.000
    O206    O    0.50285   0.79759   0.95244   1.000
    N207    N    0.49997   0.75009   0.50004   1.000
    O208    O    0.53961   0.78786   0.46219   1.000
    O209    O    0.46032   0.71233   0.53788   1.000
    O210    O    0.55964   0.70253   0.54758   1.000
    O211    O    0.49709   0.70259   0.54763   1.000
    O212    O    0.44029   0.79765   0.45252   1.000
    O213    O    0.50285   0.79760   0.45244   1.000
    N214    N    0.49997   0.00009   0.75004   1.000
    O215    O    0.46033   0.03793   0.71228   1.000
    O216    O    0.53961   0.96226   0.78780   1.000
    O217    O    0.44029   0.95256   0.79762   1.000
    O218    O    0.50284   0.95251   0.79756   1.000
    O219    O    0.55965   0.04762   0.70247   1.000
    O220    O    0.49710   0.04767   0.70253   1.000
    N221    N    0.99995   0.50010   0.50005   1.000
    O222    O    0.10711   0.45261   0.45254   1.000
    O223    O    0.04466   0.45256   0.45249   1.000
    O224    O    0.89280   0.54759   0.54755   1.000
    O225    O    0.95525   0.54765   0.54761   1.000
    O226    O    0.00173   0.53794   0.53789   1.000
    O227    O    0.99818   0.46227   0.46220   1.000
    N228    N    0.49996   0.25010   0.50005   1.000
    O229    O    0.53960   0.28787   0.46222   1.000
    O230    O    0.46032   0.21233   0.53789   1.000
    O231    O    0.49708   0.20260   0.54764   1.000
    O232    O    0.55964   0.20254   0.54758   1.000
    O233    O    0.50284   0.29760   0.45246   1.000
    O234    O    0.44029   0.29766   0.45252   1.000
    N235    N    0.49996   0.25010   0.00004   1.000
    O236    O    0.53960   0.28787   0.96220   1.000
    O237    O    0.46032   0.21233   0.03789   1.000
    O238    O    0.55964   0.20254   0.04758   1.000
    O239    O    0.49708   0.20260   0.04764   1.000
    O240    O    0.50284   0.29761   0.95244   1.000
    O241    O    0.44029   0.29766   0.95250   1.000
    N242    N    0.99996   0.25010   0.00005   1.000
    O243    O    0.03960   0.28787   0.96219   1.000
    O244    O    0.96032   0.21233   0.03790   1.000
    O245    O    0.05963   0.20254   0.04759   1.000
    O246    O    0.99708   0.20260   0.04765   1.000
    O247    O    0.94029   0.29766   0.95252   1.000
    O248    O    0.00284   0.29760   0.95244   1.000
    N249    N    0.99996   0.25010   0.50004   1.000
    O250    O    0.96032   0.21234   0.53789   1.000
    O251    O    0.05963   0.20254   0.54757   1.000
    O252    O    0.99708   0.20260   0.54763   1.000
    O253    O    0.94029   0.29766   0.45252   1.000
    O254    O    0.00284   0.29761   0.45246   1.000
    O255    O    0.03960   0.28787   0.46221   1.000
loop_
    _geom_bond_atom_site_label_1
    _geom_bond_atom_site_label_2
    _geom_bond_distance
    _geom_bond_site_symmetry_2
    _ccdc_geom_bond_type
    N32    O33       1.50857      .   S
    Zr4    O33       2.84247      .   S
    N32    O34       1.10684      .   S
    Zr20   O34       2.07289      .   S
    N32    O35       1.11217      .   S
    Zr28   O35       2.06574      .   S
    N32    O36       1.10687      .   S
    Zr28   O36       2.07291      .   S
    N32    O37       1.50859      .   S
    Zr12   O37       2.84260      .   S
    N32    O38       1.11217      .   S
    Zr20   O38       2.06566      .   S
    N39    O40       1.10688      .   S
    Zr24   O40       2.07289      .   S
    N39    O41       1.50861      .   S
    Zr8    O41       2.84258      .   S
    N39    O42       1.11216      .   S
    Zr24   O42       2.06572      .   S
    N39    O43       1.11217      .   S
    Zr16   O43       2.06568      .   S
    N39    O44       1.50851      .   S
    Zr0    O44       2.84225      .   S
    N39    O45       1.10686      .   S
    Zr16   O45       2.07290      .   S
    N46    O47       1.50863      .   S
    Zr15   O47       2.84267      .   S
    N46    O48       1.10678      .   S
    Zr27   O48       2.07293      .   S
    N46    O49       1.11217      .   S
    Zr21   O49       2.06615      .   S
    N46    O50       1.50870      .   S
    Zr1    O50       2.84271      .   S
    N46    O51       1.10702      .   S
    Zr21   O51       2.07320      .   S
    N46    O52       1.11209      .   S
    Zr27   O52       2.06571      .   S
    N53    O54       1.11241  1_655   S
    Zr28   O54       2.06598  1_655   S
    N53    O55       1.50871  1_644   S
    Zr3    O55       2.84279      .   S
    N53    O56       1.10703  1_644   S
    Zr19   O56       2.07342      .   S
    N53    O57       1.11241  1_544   S
    Zr19   O57       2.06611  1_455   S
    N53    O58       1.50867      .   S
    Zr12   O58       2.84263      .   S
    N53    O59       1.10698      .   S
    Zr28   O59       2.07337      .   S
    N60    O61       1.11236  1_655   S
    Zr29   O61       2.06601  1_655   S
    N60    O62       1.50868  1_645   S
    Zr2    O62       2.84277      .   S
    N60    O63       1.10691  1_645   S
    Zr18   O63       2.07326      .   S
    N60    O64       1.50865      .   S
    Zr13   O64       2.84260      .   S
    N60    O65       1.10697      .   S
    Zr29   O65       2.07335      .   S
    N60    O66       1.11229  1_545   S
    Zr18   O66       2.06594  1_455   S
    N67    O68       1.11226  1_655   S
    Zr30   O68       2.06631  1_655   S
    N67    O69       1.50867  1_654   S
    Zr1    O69       2.84276      .   S
    N67    O70       1.10709  1_654   S
    Zr17   O70       2.07402      .   S
    N67    O71       1.50864      .   S
    Zr14   O71       2.84261      .   S
    N67    O72       1.10693      .   S
    Zr30   O72       2.07363      .   S
    N67    O73       1.11250  1_554   S
    Zr17   O73       2.06663  1_455   S
    N74    O75       1.11226  1_654   S
    Zr19   O75       2.06596      .   S
    N74    O76       1.10700      .   S
    Zr30   O76       2.07317      .   S
    N74    O77       1.50874  1_655   S
    Zr10   O77       2.84274      .   S
    N74    O78       1.11227      .   S
    Zr30   O78       2.06597      .   S
    N74    O79       1.50871  1_554   S
    Zr7    O79       2.84272      .   S
    N74    O80       1.10699  1_654   S
    Zr19   O80       2.07314      .   S
    N81    O82       1.11216  1_655   S
    Zr18   O82       2.06573      .   S
    N81    O83       1.50875  1_655   S
    Zr11   O83       2.84274      .   S
    N81    O84       1.10702      .   S
    Zr31   O84       2.07319      .   S
    N81    O85       1.11223      .   S
    Zr31   O85       2.06609      .   S
    N81    O86       1.50847      .   S
    Zr6    O86       2.84255      .   S
    N81    O87       1.10676  1_655   S
    Zr18   O87       2.07301      .   S
    N88    O89       1.10695  1_645   S
    Zr18   O89       2.07306      .   S
    N88    O90       1.50864  1_545   S
    Zr6    O90       2.84267      .   S
    N88    O91       1.50864  1_655   S
    Zr8    O91       2.84265      .   S
    N88    O92       1.10695      .   S
    Zr28   O92       2.07308      .   S
    N88    O93       1.11221  1_645   S
    Zr18   O93       2.06591      .   S
    N88    O94       1.11222      .   S
    Zr28   O94       2.06593      .   S
    N95    O96       1.10690  1_655   S
    Zr16   O96       2.07304      .   S
    N95    O97       1.50859      .   S
    Zr4    O97       2.84263      .   S
    N95    O98       1.10690      .   S
    Zr30   O98       2.07305      .   S
    N95    O99       1.50859  1_655   S
    Zr10   O99       2.84261      .   S
    N95    O100      1.11218  1_655   S
    Zr16   O100      2.06588      .   S
    N95    O101      1.11218      .   S
    Zr30   O101      2.06589      .   S
    N102   O103      1.11226      .   S
    Zr24   O103      2.06592      .   S
    N102   O104      1.11192  1_545   S
    Zr22   O104      2.06509      .   S
    N102   O105      1.10669  1_545   S
    Zr22   O105      2.07220      .   S
    N102   O106      1.50871  1_545   S
    Zr2    O106      2.84274      .   S
    N102   O107      1.10694      .   S
    Zr24   O107      2.07315      .   S
    N102   O108      1.50870      .   S
    Zr12   O108      2.84272      .   S
    N109   O110      1.10661      .   S
    Zr22   O110      2.07253      .   S
    N109   O111      1.50857      .   S
    Zr6    O111      2.84248      .   S
    N109   O112      1.11216      .   S
    Zr30   O112      2.06569      .   S
    N109   O113      1.50859      .   S
    Zr14   O113      2.84261      .   S
    N109   O114      1.10685      .   S
    Zr30   O114      2.07288      .   S
    N109   O115      1.11209      .   S
    Zr22   O115      2.06505      .   S
    N116   O117      1.10685      .   S
    Zr18   O117      2.07292      .   S
    N116   O118      1.50857      .   S
    Zr2    O118      2.84250      .   S
    N116   O119      1.50859      .   S
    Zr10   O119      2.84259      .   S
    N116   O120      1.10686      .   S
    Zr26   O120      2.07289      .   S
    N116   O121      1.11216      .   S
    Zr26   O121      2.06570      .   S
    N116   O122      1.11217      .   S
    Zr18   O122      2.06571      .   S
    N123   O124      1.11238  1_554   S
    Zr21   O124      2.06603      .   S
    N123   O125      1.50872      .   S
    Zr10   O125      2.84267      .   S
    N123   O126      1.10695      .   S
    Zr26   O126      2.07324      .   S
    N123   O127      1.50876  1_554   S
    Zr5    O127      2.84284      .   S
    N123   O128      1.10699  1_554   S
    Zr21   O128      2.07335      .   S
    N123   O129      1.11236      .   S
    Zr26   O129      2.06589      .   S
    N130   O131      1.50860      .   S
    Zr5    O131      2.84262      .   S
    N130   O132      1.10668  1_655   S
    Zr17   O132      2.07219      .   S
    N130   O133      1.11219      .   S
    Zr31   O133      2.06583      .   S
    N130   O134      1.11191  1_655   S
    Zr17   O134      2.06511      .   S
    N130   O135      1.10691      .   S
    Zr31   O135      2.07299      .   S
    N130   O136      1.50860  1_655   S
    Zr11   O136      2.84261      .   S
    N137   O138      1.50865  1_545   S
    Zr7    O138      2.84268      .   S
    N137   O139      1.10693  1_645   S
    Zr19   O139      2.07303      .   S
    N137   O140      1.50864  1_655   S
    Zr9    O140      2.84265      .   S
    N137   O141      1.10691      .   S
    Zr29   O141      2.07303      .   S
    N137   O142      1.11219  1_645   S
    Zr19   O142      2.06588      .   S
    N137   O143      1.11224      .   S
    Zr29   O143      2.06581      .   S
    N144   O145      1.11227      .   S
    Zr20   O145      2.06595      .   S
    N144   O146      1.50874      .   S
    Zr4    O146      2.84283      .   S
    N144   O147      1.10690      .   S
    Zr20   O147      2.07324      .   S
    N144   O148      1.11228      .   S
    Zr27   O148      2.06590      .   S
    N144   O149      1.50868      .   S
    Zr11   O149      2.84265      .   S
    N144   O150      1.10689      .   S
    Zr27   O150      2.07323      .   S
    N151   O152      1.11224      .   S
    Zr26   O152      2.06591      .   S
    N151   O153      1.10690      .   S
    Zr20   O153      2.07312      .   S
    N151   O154      1.50864      .   S
    Zr0    O154      2.84269      .   S
    N151   O155      1.11223      .   S
    Zr20   O155      2.06589      .   S
    N151   O156      1.50865      .   S
    Zr14   O156      2.84268      .   S
    N151   O157      1.10690      .   S
    Zr26   O157      2.07315      .   S
    N158   O159      1.50873      .   S
    Zr8    O159      2.84271      .   S
    N158   O160      1.10698      .   S
    Zr24   O160      2.07334      .   S
    N158   O161      1.11242      .   S
    Zr24   O161      2.06596      .   S
    N158   O162      1.11243  1_544   S
    Zr23   O162      2.06608      .   S
    N158   O163      1.50878  1_544   S
    Zr7    O163      2.84286      .   S
    N158   O164      1.10704  1_544   S
    Zr23   O164      2.07339      .   S
    N165   O166      1.50864      .   S
    Zr3    O166      2.84255      .   S
    N165   O167      1.10689      .   S
    Zr19   O167      2.07291      .   S
    N165   O168      1.11214      .   S
    Zr27   O168      2.06564      .   S
    N165   O169      1.10680      .   S
    Zr27   O169      2.07285      .   S
    N165   O170      1.50855      .   S
    Zr11   O170      2.84262      .   S
    N165   O171      1.11218      .   S
    Zr19   O171      2.06569      .   S
    N172   O173      1.10685      .   S
    Zr31   O173      2.07288      .   S
    N172   O174      1.50861      .   S
    Zr15   O174      2.84267      .   S
    N172   O175      1.11216      .   S
    Zr31   O175      2.06569      .   S
    N172   O176      1.50858      .   S
    Zr7    O176      2.84251      .   S
    N172   O177      1.10683      .   S
    Zr23   O177      2.07288      .   S
    N172   O178      1.11216      .   S
    Zr23   O178      2.06564      .   S
    N179   O180      1.50863      .   S
    Zr1    O180      2.84268      .   S
    N179   O181      1.10667      .   S
    Zr17   O181      2.07263      .   S
    N179   O182      1.50853      .   S
    Zr9    O182      2.84254      .   S
    N179   O183      1.10680      .   S
    Zr25   O183      2.07284      .   S
    N179   O184      1.11219      .   S
    Zr25   O184      2.06551      .   S
    N179   O185      1.11212      .   S
    Zr17   O185      2.06520      .   S
    N186   O187      1.10684      .   S
    Zr21   O187      2.07289      .   S
    N186   O188      1.50859      .   S
    Zr5    O188      2.84256      .   S
    N186   O189      1.11216      .   S
    Zr29   O189      2.06568      .   S
    N186   O190      1.10685      .   S
    Zr29   O190      2.07287      .   S
    N186   O191      1.50862      .   S
    Zr13   O191      2.84264      .   S
    N186   O192      1.11217      .   S
    Zr21   O192      2.06566      .   S
    N193   O194      1.50872      .   S
    Zr9    O194      2.84268      .   S
    N193   O195      1.10697      .   S
    Zr25   O195      2.07330      .   S
    N193   O196      1.11219      .   S
    Zr25   O196      2.06613      .   S
    N193   O197      1.11259  1_545   S
    Zr22   O197      2.06676      .   S
    N193   O198      1.50874  1_545   S
    Zr6    O198      2.84284      .   S
    N193   O199      1.10715  1_545   S
    Zr22   O199      2.07415      .   S
    N200   O201      1.11236      .   S
    Zr26   O201      2.06602      .   S
    N200   O202      1.11229  1_554   S
    Zr23   O202      2.06592      .   S
    N200   O203      1.50889      .   S
    Zr14   O203      2.84289      .   S
    N200   O204      1.10706      .   S
    Zr26   O204      2.07330      .   S
    N200   O205      1.50870  1_554   S
    Zr3    O205      2.84271      .   S
    N200   O206      1.10693  1_554   S
    Zr23   O206      2.07320      .   S
    N207   O208      1.11235      .   S
    Zr22   O208      2.06650      .   S
    N207   O209      1.11228      .   S
    Zr27   O209      2.06594      .   S
    N207   O210      1.50867      .   S
    Zr15   O210      2.84267      .   S
    N207   O211      1.10691      .   S
    Zr27   O211      2.07323      .   S
    N207   O212      1.50868      .   S
    Zr2    O212      2.84276      .   S
    N207   O213      1.10712      .   S
    Zr22   O213      2.07355      .   S
    N214   O215      1.11226      .   S
    Zr25   O215      2.06593      .   S
    N214   O216      1.11221  1_545   S
    Zr23   O216      2.06586      .   S
    N214   O217      1.50871  1_545   S
    Zr3    O217      2.84274      .   S
    N214   O218      1.10693  1_545   S
    Zr23   O218      2.07305      .   S
    N214   O219      1.50871      .   S
    Zr13   O219      2.84272      .   S
    N214   O220      1.10694      .   S
    Zr25   O220      2.07316      .   S
    N221   O222      1.50868  1_655   S
    Zr0    O222      2.84275      .   S
    N221   O223      1.10686  1_655   S
    Zr16   O223      2.07316      .   S
    N221   O224      1.50864      .   S
    Zr15   O224      2.84259      .   S
    N221   O225      1.10695      .   S
    Zr31   O225      2.07335      .   S
    N221   O226      1.11235  1_655   S
    Zr31   O226      2.06600  1_655   S
    N221   O227      1.11239      .   S
    Zr16   O227      2.06570  1_455   S
    N228   O229      1.11227      .   S
    Zr20   O229      2.06588      .   S
    N228   O230      1.11228      .   S
    Zr25   O230      2.06591      .   S
    N228   O231      1.10691      .   S
    Zr25   O231      2.07320      .   S
    N228   O232      1.50868      .   S
    Zr13   O232      2.84264      .   S
    N228   O233      1.10690      .   S
    Zr20   O233      2.07317      .   S
    N228   O234      1.50878      .   S
    Zr0    O234      2.84297      .   S
    N235   O236      1.11231  1_554   S
    Zr21   O236      2.06593      .   S
    N235   O237      1.11235      .   S
    Zr24   O237      2.06601      .   S
    N235   O238      1.50885      .   S
    Zr12   O238      2.84288      .   S
    N235   O239      1.10703      .   S
    Zr24   O239      2.07329      .   S
    N235   O240      1.10707  1_554   S
    Zr21   O240      2.07316      .   S
    N235   O241      1.50887  1_554   S
    Zr1    O241      2.84257      .   S
    N242   O243      1.11233  1_654   S
    Zr17   O243      2.06650      .   S
    N242   O244      1.11227      .   S
    Zr28   O244      2.06595      .   S
    N242   O245      1.50872  1_655   S
    Zr8    O245      2.84275      .   S
    N242   O246      1.10698      .   S
    Zr28   O246      2.07316      .   S
    N242   O247      1.50869  1_554   S
    Zr5    O247      2.84273      .   S
    N242   O248      1.10717  1_654   S
    Zr17   O248      2.07348      .   S
    N249   O250      1.11223      .   S
    Zr29   O250      2.06593      .   S
    N249   O251      1.50852  1_655   S
    Zr9    O251      2.84275      .   S
    N249   O252      1.10684      .   S
    Zr29   O252      2.07319      .   S
    N249   O253      1.50860      .   S
    Zr4    O253      2.84264      .   S
    N249   O254      1.10685  1_655   S
    Zr16   O254      2.07305      .   S
    N249   O255      1.11219  1_655   S
    Zr16   O255      2.06582      .   S
