# CIF file generated by openbabel 2.4.90, see http://openbabel.sf.net
data_I
_chemical_name_common ''
_cell_length_a 22.672
_cell_length_b 22.189
_cell_length_c 29.054
_cell_angle_alpha 90.096
_cell_angle_beta 90.041
_cell_angle_gamma 89.324
_space_group_name_H-M_alt 'P 1'
_space_group_name_Hall 'P 1'
loop_
    _symmetry_equiv_pos_as_xyz
    x,y,z
loop_
    _atom_site_label
    _atom_site_type_symbol
    _atom_site_fract_x
    _atom_site_fract_y
    _atom_site_fract_z
    _atom_site_occupancy
    Zn0     Zn   0.80740   0.83088   0.67780   1.000
    Zn1     Zn   0.37766   0.89592   0.76660   1.000
    Zn2     Zn   0.87767   0.89592   0.76660   1.000
    Zn3     Zn   0.24243   0.87738   0.76006   1.000
    Zn4     Zn   0.74244   0.87738   0.76006   1.000
    Zn5     Zn   0.34518   0.96369   0.68573   1.000
    Zn6     Zn   0.84519   0.96369   0.68573   1.000
    Zn7     Zn   0.19255   0.16807   0.17780   1.000
    Zn8     Zn   0.69255   0.16807   0.17780   1.000
    Zn9     Zn   0.12237   0.10192   0.26620   1.000
    Zn10    Zn   0.62237   0.10192   0.26620   1.000
    Zn11    Zn   0.25761   0.12257   0.25995   1.000
    Zn12    Zn   0.75761   0.12257   0.25995   1.000
    Zn13    Zn   0.15525   0.03419   0.18574   1.000
    Zn14    Zn   0.65526   0.03419   0.18574   1.000
    Zn15    Zn   0.44226   0.32860   0.67781   1.000
    Zn16    Zn   0.94227   0.32860   0.67781   1.000
    Zn17    Zn   0.36999   0.39566   0.76593   1.000
    Zn18    Zn   0.87000   0.39566   0.76593   1.000
    Zn19    Zn   0.00536   0.37466   0.76012   1.000
    Zn20    Zn   0.50537   0.37466   0.76012   1.000
    Zn21    Zn   0.40466   0.46307   0.68436   1.000
    Zn22    Zn   0.90467   0.46307   0.68436   1.000
    Zn23    Zn   0.05523   0.66971   0.17756   1.000
    Zn24    Zn   0.55524   0.66971   0.17756   1.000
    Zn25    Zn   0.12772   0.60417   0.26592   1.000
    Zn26    Zn   0.62772   0.60417   0.26592   1.000
    Zn27    Zn   0.49235   0.62498   0.25999   1.000
    Zn28    Zn   0.99236   0.62498   0.25999   1.000
    Zn29    Zn   0.09508   0.53680   0.18424   1.000
    Zn30    Zn   0.59508   0.53680   0.18424   1.000
    H31     H    0.42954   0.98187   0.56000   1.000
    Zn32    Zn   0.30739   0.83088   0.67780   1.000
    H33     H    0.92955   0.98187   0.56019   1.000
    H34     H    0.48105   0.97210   0.48480   1.000
    H35     H    0.98106   0.97210   0.48480   1.000
    H36     H    0.39848   0.80032   0.46285   1.000
    H37     H    0.89848   0.80032   0.46285   1.000
    H38     H    0.34725   0.81068   0.53858   1.000
    H39     H    0.84725   0.81068   0.53858   1.000
    H40     H    0.05379   0.96270   0.34162   1.000
    H41     H    0.55379   0.96270   0.34162   1.000
    H42     H    0.08212   0.85977   0.21751   1.000
    H43     H    0.58212   0.85977   0.21751   1.000
    H44     H    0.48934   0.78076   0.33096   1.000
    H45     H    0.98935   0.78076   0.33096   1.000
    H46     H    0.13948   0.70576   0.38284   1.000
    H47     H    0.63948   0.70576   0.38284   1.000
    H48     H    0.13602   0.75713   0.45923   1.000
    H49     H    0.63602   0.75713   0.45923   1.000
    H50     H    0.45879   0.69372   0.47921   1.000
    H51     H    0.95880   0.69372   0.47921   1.000
    H52     H    0.46253   0.64344   0.40214   1.000
    H53     H    0.96253   0.64344   0.40214   1.000
    H54     H    0.14979   0.81221   0.60244   1.000
    H55     H    0.64980   0.81221   0.60244   1.000
    H56     H    0.06031   0.87009   0.72500   1.000
    H57     H    0.56032   0.87009   0.72500   1.000
    H58     H    0.46023   0.79743   0.61312   1.000
    H59     H    0.96024   0.79743   0.61312   1.000
    H60     H    0.07007   0.01619   0.05970   1.000
    H61     H    0.57007   0.01619   0.05977   1.000
    H62     H    0.01847   0.02679   0.98446   1.000
    H63     H    0.51848   0.02679   0.98446   1.000
    H64     H    0.10089   0.19887   0.96410   1.000
    H65     H    0.60090   0.19887   0.96410   1.000
    H66     H    0.15228   0.18764   0.03970   1.000
    H67     H    0.65229   0.18764   0.03970   1.000
    H68     H    0.44719   0.03612   0.84176   1.000
    H69     H    0.94719   0.03612   0.84176   1.000
    H70     H    0.41768   0.13831   0.71700   1.000
    H71     H    0.91769   0.13831   0.71700   1.000
    H72     H    0.00929   0.21893   0.83138   1.000
    H73     H    0.50930   0.21893   0.83138   1.000
    H74     H    0.35829   0.29456   0.88326   1.000
    H75     H    0.85829   0.29457   0.88326   1.000
    H76     H    0.36229   0.24339   0.95958   1.000
    H77     H    0.86229   0.24340   0.95958   1.000
    H78     H    0.03987   0.30635   0.97885   1.000
    H79     H    0.53988   0.30634   0.97885   1.000
    H80     H    0.03556   0.35647   0.90189   1.000
    H81     H    0.53556   0.35646   0.90189   1.000
    H82     H    0.34986   0.18823   0.10254   1.000
    H83     H    0.84987   0.18823   0.10254   1.000
    H84     H    0.44005   0.12883   0.22490   1.000
    H85     H    0.94005   0.12883   0.22490   1.000
    H86     H    0.03959   0.20202   0.11262   1.000
    H87     H    0.53959   0.20201   0.11262   1.000
    H88     H    0.32046   0.48159   0.55833   1.000
    H89     H    0.82046   0.48159   0.55833   1.000
    H90     H    0.26913   0.47172   0.48293   1.000
    H91     H    0.76914   0.47173   0.48293   1.000
    H92     H    0.35115   0.29726   0.46321   1.000
    H93     H    0.85116   0.29726   0.46321   1.000
    H94     H    0.40218   0.30771   0.53890   1.000
    H95     H    0.90219   0.30771   0.53894   1.000
    H96     H    0.19745   0.46323   0.34003   1.000
    H97     H    0.69746   0.46323   0.34003   1.000
    H98     H    0.16763   0.35999   0.21658   1.000
    H99     H    0.66763   0.35999   0.21658   1.000
    C100    C    0.60881   0.81878   0.62138   1.000
    C101    C    0.11085   0.84252   0.66596   1.000
    C102    C    0.61086   0.84252   0.66596   1.000
    C103    C    0.05871   0.85120   0.69106   1.000
    H104    H    0.25907   0.27863   0.33075   1.000
    H105    H    0.75908   0.27863   0.33075   1.000
    H106    H    0.10998   0.20472   0.38304   1.000
    H107    H    0.60999   0.20472   0.38300   1.000
    H108    H    0.11364   0.25664   0.45917   1.000
    H109    H    0.61364   0.25664   0.45917   1.000
    H110    H    0.29205   0.19180   0.47830   1.000
    H111    H    0.79205   0.19179   0.47830   1.000
    H112    H    0.28810   0.14101   0.40149   1.000
    H113    H    0.78810   0.14101   0.40149   1.000
    H114    H    0.09969   0.31011   0.60229   1.000
    H115    H    0.59970   0.31011   0.60229   1.000
    H116    H    0.18800   0.36848   0.72533   1.000
    H117    H    0.68800   0.36848   0.72533   1.000
    H118    H    0.28979   0.29723   0.61240   1.000
    H119    H    0.78979   0.29723   0.61240   1.000
    H120    H    0.17977   0.51861   0.05821   1.000
    H121    H    0.67977   0.51861   0.05821   1.000
    H122    H    0.23107   0.52880   0.98292   1.000
    H123    H    0.73107   0.52880   0.98292   1.000
    H124    H    0.14800   0.70275   0.96350   1.000
    H125    H    0.64801   0.70275   0.96350   1.000
    H126    H    0.09694   0.69195   0.03909   1.000
    H127    H    0.59695   0.69195   0.03909   1.000
    H128    H    0.30177   0.53703   0.84000   1.000
    H129    H    0.80178   0.53703   0.84019   1.000
    H130    H    0.33200   0.63980   0.71690   1.000
    H131    H    0.83200   0.63980   0.71690   1.000
    C132    C    0.50035   0.30360   0.95764   1.000
    C133    C    0.00000   0.30361   0.95760   1.000
    C134    C    0.49792   0.33170   0.91497   1.000
    C135    C    0.99793   0.33170   0.91497   1.000
    C136    C    0.45145   0.24466   0.01839   1.000
    H137    H    0.24068   0.72176   0.83099   1.000
    H138    H    0.74069   0.72176   0.83099   1.000
    H139    H    0.38888   0.79418   0.88399   1.000
    H140    H    0.88889   0.79418   0.88399   1.000
    H141    H    0.38417   0.74294   0.96022   1.000
    H142    H    0.88418   0.74294   0.96022   1.000
    H143    H    0.20602   0.80920   0.97802   1.000
    H144    H    0.70603   0.80920   0.97802   1.000
    H145    H    0.21107   0.85942   0.90119   1.000
    H146    H    0.71108   0.85942   0.90119   1.000
    H147    H    0.39756   0.68909   0.10188   1.000
    H148    H    0.89757   0.68909   0.10188   1.000
    H149    H    0.30998   0.63075   0.22500   1.000
    H150    H    0.80998   0.63075   0.22500   1.000
    H151    H    0.20762   0.70308   0.11293   1.000
    H152    H    0.70763   0.70308   0.11293   1.000
    C153    C    0.35496   0.90197   0.59935   1.000
    C154    C    0.85496   0.90197   0.59935   1.000
    C155    C    0.38485   0.89707   0.55389   1.000
    C156    C    0.88485   0.89707   0.55389   1.000
    C157    C    0.42284   0.94242   0.53857   1.000
    C158    C    0.92285   0.94242   0.53857   1.000
    C159    C    0.45160   0.93690   0.49659   1.000
    C160    C    0.95160   0.93690   0.49659   1.000
    C161    C    0.44301   0.88565   0.46851   1.000
    C162    C    0.94301   0.88565   0.46851   1.000
    C163    C    0.40504   0.84000   0.48428   1.000
    C164    C    0.90505   0.84000   0.48428   1.000
    C165    C    0.37650   0.84576   0.52632   1.000
    C166    C    0.87651   0.84576   0.52632   1.000
    C167    C    0.47106   0.88053   0.42513   1.000
    C168    C    0.97106   0.88053   0.42513   1.000
    C169    C    0.49381   0.87684   0.38714   1.000
    C170    C    0.99381   0.87684   0.38714   1.000
    C171    C    0.01833   0.87234   0.34233   1.000
    C172    C    0.51833   0.87234   0.34233   1.000
    C173    C    0.04835   0.92096   0.32247   1.000
    C174    C    0.54836   0.92096   0.32247   1.000
    C175    C    0.07109   0.91655   0.27775   1.000
    C176    C    0.57110   0.91655   0.27775   1.000
    C177    C    0.06445   0.86341   0.25223   1.000
    C178    C    0.56446   0.86341   0.25223   1.000
    C179    C    0.03485   0.81473   0.27175   1.000
    C180    C    0.53485   0.81473   0.27175   1.000
    C181    C    0.01206   0.81915   0.31636   1.000
    C182    C    0.51207   0.81915   0.31636   1.000
    C183    C    0.10096   0.97018   0.25795   1.000
    C184    C    0.60097   0.97018   0.25795   1.000
    C185    C    0.02806   0.75644   0.24615   1.000
    C186    C    0.52807   0.75644   0.24615   1.000
    C187    C    0.05519   0.64142   0.34243   1.000
    C188    C    0.55520   0.64142   0.34243   1.000
    C189    C    0.05145   0.67111   0.38813   1.000
    C190    C    0.55145   0.67111   0.38813   1.000
    C191    C    0.10024   0.70349   0.40420   1.000
    C192    C    0.60024   0.70349   0.40420   1.000
    C193    C    0.09828   0.73201   0.44664   1.000
    C194    C    0.59829   0.73201   0.44664   1.000
    C195    C    0.04732   0.72846   0.47440   1.000
    C196    C    0.54733   0.72846   0.47440   1.000
    C197    C    0.99809   0.69652   0.45781   1.000
    C198    C    0.49810   0.69652   0.45781   1.000
    C199    C    0.00020   0.66835   0.41509   1.000
    C200    C    0.50021   0.66835   0.41509   1.000
    C201    C    0.04746   0.75561   0.51843   1.000
    C202    C    0.54747   0.75561   0.51843   1.000
    C203    C    0.05149   0.77813   0.55660   1.000
    C204    C    0.55149   0.77813   0.55660   1.000
    C205    C    0.05449   0.80277   0.60150   1.000
    C206    C    0.55450   0.80277   0.60150   1.000
    C207    C    0.10880   0.81878   0.62138   1.000
    C208    C    0.79453   0.74581   0.01827   1.000
    C209    C    0.29847   0.72309   0.05637   1.000
    C210    C    0.79848   0.72309   0.05637   1.000
    C211    C    0.30201   0.69823   0.10116   1.000
    C212    C    0.80202   0.69822   0.10116   1.000
    C213    C    0.35681   0.68235   0.12088   1.000
    C214    C    0.85682   0.68235   0.12088   1.000
    C215    C    0.35965   0.65858   0.16539   1.000
    C216    C    0.55872   0.85120   0.69106   1.000
    C217    C    0.00469   0.83448   0.67182   1.000
    C218    C    0.50470   0.83448   0.67182   1.000
    C219    C    0.00258   0.81032   0.62748   1.000
    C220    C    0.50259   0.81032   0.62748   1.000
    C221    C    0.16952   0.85577   0.68722   1.000
    C222    C    0.66953   0.85577   0.68722   1.000
    C223    C    0.44798   0.84246   0.69753   1.000
    C224    C    0.94799   0.84246   0.69753   1.000
    C225    C    0.14489   0.09576   0.09900   1.000
    C226    C    0.64490   0.09576   0.09900   1.000
    C227    C    0.11477   0.10105   0.05422   1.000
    C228    C    0.61478   0.10105   0.05422   1.000
    C229    C    0.07674   0.05589   0.03851   1.000
    C230    C    0.57674   0.05589   0.03851   1.000
    C231    C    0.04792   0.06187   0.99656   1.000
    C232    C    0.54792   0.06187   0.99656   1.000
    C233    C    0.05647   0.11342   0.96894   1.000
    C234    C    0.55647   0.11342   0.96894   1.000
    C235    C    0.09438   0.15894   0.98516   1.000
    C236    C    0.59439   0.15894   0.98516   1.000
    C237    C    0.12300   0.15269   0.02713   1.000
    C238    C    0.62301   0.15269   0.02713   1.000
    C239    C    0.02851   0.11889   0.92553   1.000
    C240    C    0.52851   0.11889   0.92553   1.000
    C241    C    0.00595   0.12274   0.88745   1.000
    C242    C    0.50596   0.12274   0.88745   1.000
    C243    C    0.48151   0.12695   0.84258   1.000
    C244    C    0.98152   0.12695   0.84258   1.000
    C245    C    0.45213   0.07785   0.82262   1.000
    C246    C    0.95214   0.07785   0.82262   1.000
    C247    C    0.42943   0.08178   0.77787   1.000
    C248    C    0.92944   0.08178   0.77787   1.000
    C249    C    0.43538   0.13501   0.75243   1.000
    C250    C    0.93538   0.13501   0.75243   1.000
    C251    C    0.46425   0.18422   0.77205   1.000
    C252    C    0.96425   0.18422   0.77205   1.000
    C253    C    0.48709   0.18019   0.81669   1.000
    C254    C    0.98710   0.18019   0.81669   1.000
    C255    C    0.40005   0.02772   0.75802   1.000
    C256    C    0.90006   0.02772   0.75802   1.000
    C257    C    0.47020   0.24268   0.74658   1.000
    C258    C    0.97020   0.24268   0.74658   1.000
    C259    C    0.44248   0.35857   0.84251   1.000
    C260    C    0.94248   0.35857   0.84251   1.000
    C261    C    0.44644   0.32901   0.88820   1.000
    C262    C    0.94645   0.32901   0.88820   1.000
    C263    C    0.39772   0.29679   0.90453   1.000
    C264    C    0.89773   0.29680   0.90453   1.000
    C265    C    0.39998   0.26838   0.94687   1.000
    C266    C    0.89999   0.26839   0.94680   1.000
    C267    C    0.45120   0.27181   0.97446   1.000
    C268    C    0.95121   0.27182   0.97446   1.000
    O269    O    0.46407   0.66154   0.16457   1.000
    O270    O    0.96408   0.66154   0.16457   1.000
    O271    O    0.41843   0.61963   0.22635   1.000
    O272    O    0.91844   0.61963   0.22635   1.000
    O273    O    0.15023   0.67956   0.18008   1.000
    O274    O    0.65024   0.67956   0.18008   1.000
    O275    O    0.20040   0.62748   0.23512   1.000
    O276    O    0.70040   0.62748   0.23512   1.000
    C277    C    0.95145   0.24467   0.01839   1.000
    C278    C    0.44788   0.22206   0.05652   1.000
    C279    C    0.94789   0.22207   0.05650   1.000
    C280    C    0.44520   0.19717   0.10131   1.000
    C281    C    0.94521   0.19718   0.10131   1.000
    C282    C    0.39096   0.18130   0.12128   1.000
    C283    C    0.89097   0.18131   0.12128   1.000
    C284    C    0.38913   0.15723   0.16571   1.000
    C285    C    0.88914   0.15723   0.16571   1.000
    C286    C    0.44146   0.14801   0.19051   1.000
    C287    C    0.94146   0.14802   0.19051   1.000
    C288    C    0.49543   0.16460   0.17120   1.000
    C289    C    0.99543   0.16460   0.17120   1.000
    C290    C    0.49730   0.18918   0.12703   1.000
    C291    C    0.99730   0.18918   0.12700   1.000
    C292    C    0.33051   0.14416   0.18710   1.000
    C293    C    0.83052   0.14416   0.18710   1.000
    C294    C    0.05227   0.15619   0.19676   1.000
    C295    C    0.55227   0.15619   0.19670   1.000
    C296    C    0.39479   0.40039   0.59865   1.000
    C297    C    0.89480   0.40039   0.59865   1.000
    C298    C    0.36490   0.39546   0.55317   1.000
    C299    C    0.86491   0.39546   0.55317   1.000
    C300    C    0.32710   0.44152   0.53721   1.000
    C301    C    0.82710   0.44152   0.53721   1.000
    C302    C    0.29842   0.43594   0.49520   1.000
    C303    C    0.79843   0.43594   0.49520   1.000
    C304    C    0.30690   0.38393   0.46770   1.000
    C305    C    0.80690   0.38393   0.46770   1.000
    C306    C    0.34464   0.33755   0.48414   1.000
    C307    C    0.84465   0.33755   0.48414   1.000
    C308    C    0.37309   0.34337   0.52620   1.000
    C309    C    0.87309   0.34337   0.52620   1.000
    C310    C    0.27895   0.37891   0.42426   1.000
    C311    C    0.77895   0.37891   0.42420   1.000
    C312    C    0.25617   0.37559   0.38625   1.000
    C313    C    0.75618   0.37559   0.38625   1.000
    C314    C    0.23158   0.37152   0.34142   1.000
    C315    C    0.73158   0.37152   0.34142   1.000
    C316    C    0.20230   0.42108   0.32110   1.000
    C317    C    0.70230   0.42108   0.32110   1.000
    C318    C    0.17953   0.41710   0.27642   1.000
    C319    C    0.67954   0.41710   0.27642   1.000
    C320    C    0.18534   0.36334   0.25130   1.000
    C321    C    0.68535   0.36334   0.25130   1.000
    C322    C    0.21410   0.31367   0.27123   1.000
    C323    C    0.71411   0.31367   0.27123   1.000
    C324    C    0.23697   0.31776   0.31584   1.000
    C325    C    0.73698   0.31776   0.31584   1.000
    C326    C    0.15021   0.47169   0.25633   1.000
    C327    C    0.65022   0.47169   0.25633   1.000
    C328    C    0.22008   0.25467   0.24615   1.000
    C329    C    0.72008   0.25467   0.24615   1.000
    C330    C    0.19479   0.13916   0.34241   1.000
    C331    C    0.69479   0.13916   0.34241   1.000
    C332    C    0.19856   0.16928   0.38793   1.000
    C333    C    0.69857   0.16928   0.38793   1.000
    C334    C    0.14952   0.20226   0.40420   1.000
    C335    C    0.64953   0.20226   0.40423   1.000
    C336    C    0.15159   0.23108   0.44647   1.000
    C337    C    0.65159   0.23108   0.44647   1.000
    C338    C    0.20292   0.22726   0.47399   1.000
    C339    C    0.70292   0.22726   0.47399   1.000
    C340    C    0.25242   0.19480   0.45716   1.000
    C341    C    0.75243   0.19480   0.45716   1.000
    C342    C    0.25019   0.16632   0.41457   1.000
    C343    C    0.75020   0.16632   0.41457   1.000
    C344    C    0.20280   0.25456   0.51795   1.000
    C345    C    0.70281   0.25456   0.51795   1.000
    C346    C    0.19869   0.27708   0.55610   1.000
    C347    C    0.69870   0.27708   0.55610   1.000
    C348    C    0.19528   0.30164   0.60111   1.000
    C349    C    0.69529   0.30164   0.60111   1.000
    C350    C    0.14056   0.31705   0.62114   1.000
    C351    C    0.64057   0.31705   0.62114   1.000
    C352    C    0.13799   0.34062   0.66570   1.000
    C353    C    0.63800   0.34062   0.66570   1.000
    C354    C    0.18999   0.34974   0.69070   1.000
    C355    C    0.69000   0.34974   0.69070   1.000
    C356    C    0.24444   0.33367   0.67135   1.000
    C357    C    0.74445   0.33367   0.67135   1.000
    C358    C    0.24710   0.30965   0.62696   1.000
    C359    C    0.74711   0.30965   0.62696   1.000
    C360    C    0.07905   0.35325   0.68725   1.000
    C361    C    0.57906   0.35325   0.68725   1.000
    C362    C    0.30094   0.34209   0.69711   1.000
    C363    C    0.80094   0.34209   0.69711   1.000
    C364    C    0.10484   0.59938   0.09856   1.000
    C365    C    0.60484   0.59938   0.09856   1.000
    C366    C    0.13477   0.60445   0.05317   1.000
    C367    C    0.63477   0.60445   0.05317   1.000
    C368    C    0.17289   0.55864   0.03717   1.000
    C369    C    0.67289   0.55864   0.03717   1.000
    C370    C    0.20154   0.56439   0.99522   1.000
    C371    C    0.70154   0.56439   0.99522   1.000
    C372    C    0.19277   0.61635   0.96784   1.000
    C373    C    0.69277   0.61635   0.96784   1.000
    C374    C    0.15473   0.66249   0.98434   1.000
    C375    C    0.65474   0.66249   0.98434   1.000
    C376    C    0.12627   0.65648   0.02631   1.000
    C377    C    0.62628   0.65648   0.02631   1.000
    C378    C    0.22070   0.62152   0.92446   1.000
    C379    C    0.72070   0.62152   0.92440   1.000
    C380    C    0.24342   0.62493   0.88646   1.000
    C381    C    0.74343   0.62493   0.88646   1.000
    C382    C    0.26800   0.62887   0.84166   1.000
    C383    C    0.76800   0.62887   0.84166   1.000
    C384    C    0.29710   0.57915   0.82137   1.000
    C385    C    0.79710   0.57915   0.82137   1.000
    C386    C    0.31987   0.58294   0.77666   1.000
    C387    C    0.81988   0.58294   0.77666   1.000
    C388    C    0.31427   0.63661   0.75159   1.000
    C389    C    0.81427   0.63661   0.75159   1.000
    C390    C    0.28560   0.68638   0.77151   1.000
    C391    C    0.78560   0.68638   0.77151   1.000
    C392    C    0.26271   0.68254   0.81610   1.000
    C393    C    0.76272   0.68254   0.81610   1.000
    C394    C    0.34889   0.52819   0.75650   1.000
    C395    C    0.84889   0.52819   0.75650   1.000
    C396    C    0.27968   0.74515   0.74634   1.000
    C397    C    0.77969   0.74515   0.74634   1.000
    C398    C    0.30487   0.85992   0.84262   1.000
    C399    C    0.80487   0.85992   0.84262   1.000
    C400    C    0.30051   0.83031   0.88822   1.000
    C401    C    0.80051   0.83031   0.88822   1.000
    C402    C    0.34917   0.79711   0.90492   1.000
    C403    C    0.84918   0.79711   0.90492   1.000
    C404    C    0.34652   0.76866   0.94720   1.000
    C405    C    0.84652   0.76866   0.94720   1.000
    C406    C    0.29494   0.77301   0.97436   1.000
    C407    C    0.79495   0.77301   0.97436   1.000
    C408    C    0.24584   0.80575   0.95716   1.000
    C409    C    0.74584   0.80575   0.95716   1.000
    C410    C    0.24867   0.83391   0.91455   1.000
    C411    C    0.74868   0.83391   0.91455   1.000
    C412    C    0.29453   0.74581   0.01827   1.000
    C413    C    0.85966   0.65858   0.16539   1.000
    C414    C    0.30779   0.64965   0.19052   1.000
    C415    C    0.80779   0.64965   0.19052   1.000
    C416    C    0.25324   0.66606   0.17141   1.000
    C417    C    0.75325   0.66606   0.17141   1.000
    C418    C    0.25037   0.69035   0.12716   1.000
    C419    C    0.75037   0.69035   0.12716   1.000
    C420    C    0.41875   0.64557   0.18653   1.000
    C421    C    0.91876   0.64557   0.18653   1.000
    C422    C    0.19680   0.65771   0.19721   1.000
    C423    C    0.69680   0.65771   0.19721   1.000
    O424    O    0.31054   0.90274   0.72200   1.000
    O425    O    0.81055   0.90274   0.72200   1.000
    O426    O    0.32258   0.85929   0.61245   1.000
    O427    O    0.82258   0.85929   0.61245   1.000
    O428    O    0.36508   0.95103   0.62249   1.000
    O429    O    0.86509   0.95103   0.62249   1.000
    O430    O    0.10531   0.01621   0.28352   1.000
    O431    O    0.60532   0.01621   0.28352   1.000
    O432    O    0.11973   0.96600   0.21000   1.000
    O433    O    0.61974   0.96600   0.21000   1.000
    O434    O    0.05012   0.75207   0.20590   1.000
    O435    O    0.55013   0.75207   0.20590   1.000
    O436    O    0.50111   0.71507   0.26762   1.000
    O437    O    0.00000   0.71507   0.26762   1.000
    O438    O    0.10497   0.64579   0.32183   1.000
    O439    O    0.60498   0.64579   0.32183   1.000
    O440    O    0.00995   0.61432   0.32634   1.000
    O441    O    0.50995   0.61432   0.32634   1.000
    O442    O    0.21530   0.83872   0.66587   1.000
    O443    O    0.71530   0.83872   0.66587   1.000
    O444    O    0.16839   0.88302   0.72662   1.000
    O445    O    0.66840   0.88302   0.72662   1.000
    O446    O    0.40208   0.82060   0.68006   1.000
    O447    O    0.90209   0.82060   0.68006   1.000
    O448    O    0.45063   0.87239   0.73566   1.000
    O449    O    0.95063   0.87239   0.73566   1.000
    O450    O    0.18969   0.09610   0.22182   1.000
    O451    O    0.68970   0.09610   0.22182   1.000
    O452    O    0.17748   0.13825   0.11283   1.000
    O453    O    0.67749   0.13825   0.11283   1.000
    O454    O    0.13479   0.04662   0.12254   1.000
    O455    O    0.63480   0.04662   0.12254   1.000
    O456    O    0.39504   0.98201   0.78374   1.000
    O457    O    0.89505   0.98201   0.78374   1.000
    O458    O    0.38225   0.03138   0.71577   1.000
    O459    O    0.88226   0.03138   0.71577   1.000
    O460    O    0.44725   0.24696   0.70659   1.000
    O461    O    0.94725   0.24696   0.70659   1.000
    O462    O    0.99730   0.28421   0.76785   1.000
    O463    O    0.49731   0.28421   0.76785   1.000
    O464    O    0.39264   0.35416   0.82192   1.000
    O465    O    0.89265   0.35416   0.82192   1.000
    O466    O    0.48767   0.38564   0.82643   1.000
    O467    O    0.98767   0.38564   0.82643   1.000
    O468    O    0.28467   0.16122   0.16583   1.000
    O469    O    0.78468   0.16122   0.16583   1.000
    O470    O    0.33173   0.11709   0.22650   1.000
    O471    O    0.83174   0.11709   0.22650   1.000
    O472    O    0.09797   0.17916   0.17995   1.000
    O473    O    0.59798   0.17916   0.17995   1.000
    O474    O    0.04981   0.12485   0.23415   1.000
    O475    O    0.54982   0.12485   0.23415   1.000
    O476    O    0.43747   0.40101   0.72170   1.000
    O477    O    0.93748   0.40101   0.72170   1.000
    O478    O    0.42690   0.35702   0.61229   1.000
    O479    O    0.92690   0.35702   0.61229   1.000
    O480    O    0.38500   0.45028   0.62120   1.000
    O481    O    0.88501   0.45028   0.62120   1.000
    O482    O    0.14524   0.51768   0.28200   1.000
    O483    O    0.64525   0.51768   0.28200   1.000
    O484    O    0.13242   0.46828   0.21408   1.000
    O485    O    0.63242   0.46828   0.21408   1.000
    O486    O    0.19725   0.25024   0.20610   1.000
    O487    O    0.69726   0.25024   0.20610   1.000
    O488    O    0.24723   0.21289   0.26777   1.000
    O489    O    0.74724   0.21289   0.26777   1.000
    O490    O    0.14472   0.14354   0.32202   1.000
    O491    O    0.64473   0.14354   0.32202   1.000
    O492    O    0.24035   0.11167   0.32625   1.000
    O493    O    0.74035   0.11167   0.32625   1.000
    O494    O    0.03371   0.33601   0.66584   1.000
    O495    O    0.53372   0.33601   0.66584   1.000
    O496    O    0.07946   0.38020   0.72675   1.000
    O497    O    0.57947   0.38020   0.72675   1.000
    O498    O    0.34749   0.32031   0.67988   1.000
    O499    O    0.84750   0.32031   0.67988   1.000
    O500    O    0.29734   0.37224   0.73511   1.000
    O501    O    0.79735   0.37224   0.73511   1.000
    O502    O    0.06034   0.59809   0.22159   1.000
    O503    O    0.56035   0.59809   0.22159   1.000
    O504    O    0.07230   0.64251   0.11208   1.000
    O505    O    0.57230   0.64251   0.11208   1.000
    O506    O    0.11507   0.54974   0.12120   1.000
    O507    O    0.61508   0.54974   0.12120   1.000
    O508    O    0.35266   0.48202   0.78196   1.000
    O509    O    0.85267   0.48202   0.78196   1.000
    O510    O    0.36757   0.53169   0.71451   1.000
    O511    O    0.86758   0.53169   0.71451   1.000
    O512    O    0.30271   0.74926   0.70643   1.000
    O513    O    0.80271   0.74926   0.70643   1.000
    O514    O    0.25240   0.78704   0.76777   1.000
    O515    O    0.75241   0.78704   0.76777   1.000
    O516    O    0.35480   0.85423   0.82220   1.000
    O517    O    0.85481   0.85423   0.82220   1.000
    O518    O    0.25984   0.88826   0.82639   1.000
    O519    O    0.75985   0.88826   0.82639   1.000
loop_
    _geom_bond_atom_site_label_1
    _geom_bond_atom_site_label_2
    _geom_bond_distance
    _geom_bond_site_symmetry_2
    _ccdc_geom_bond_type
    C208   C210      1.21992      .   S
    C208   C407      1.41234  1_554   S
    C412   C209      1.21992      .   S
    C412   C406      1.41234  1_554   S
    C136   C278      1.21992      .   S
    C136   C267      1.41232  1_554   S
    C277   C279      1.21940      .   S
    C277   C268      1.41232  1_554   S
    C376   H126      1.08924      .   S
    C376   C366      1.40585      .   S
    C376   C374      1.38737  1_554   S
    C377   H127      1.08924      .   S
    C377   C367      1.40584      .   S
    C377   C375      1.38737  1_554   S
    C237   H66       1.08908      .   S
    C237   C227      1.40551      .   S
    C237   C235      1.38722  1_554   S
    C238   H67       1.08907      .   S
    C238   C228      1.40550      .   S
    C238   C236      1.38722  1_554   S
    C368   C366      1.40522      .   S
    C368   H120      1.08865      .   S
    C368   C370      1.38831  1_554   S
    C369   C367      1.40522      .   S
    C369   H121      1.08866      .   S
    C369   C371      1.38831  1_554   S
    C229   C227      1.40520      .   S
    C229   H60       1.08763      .   S
    C229   C231      1.38832  1_554   S
    C230   C228      1.40521      .   S
    C230   H61       1.08877      .   S
    C230   C232      1.38832  1_554   S
    C366   C364      1.48861      .   S
    C367   C365      1.48860      .   S
    C228   C226      1.47318      .   S
    C227   C225      1.47318      .   S
    C210   C212      1.41613      .   S
    C209   C211      1.41613      .   S
    C279   C281      1.41668      .   S
    C278   C280      1.41613      .   S
    C365   O505      1.26385      .   S
    C365   O507      1.30221      .   S
    C364   O504      1.26385      .   S
    C364   O506      1.30221      .   S
    C226   O453      1.26941      .   S
    C226   O455      1.31046      .   S
    C225   O452      1.26941      .   S
    C225   O454      1.31046      .   S
    C211   C213      1.40897      .   S
    C211   C418      1.40668      .   S
    C212   C214      1.40899      .   S
    C212   C419      1.40668      .   S
    C281   C283      1.40878      .   S
    C281   C291      1.40635      .   S
    C280   C282      1.40880      .   S
    C280   C290      1.40679      .   S
    H147   C213      1.08849      .   S
    H148   C214      1.08847      .   S
    H82    C282      1.08838      .   S
    H83    C283      1.08840      .   S
    O504   Zn23      2.03096      .   S
    O505   Zn24      2.03096      .   S
    H87    C290      1.08786      .   S
    H86    C291      1.08725  1_455   S
    O453   Zn8       2.02920      .   S
    O452   Zn7       2.02920      .   S
    H151   C418      1.08782      .   S
    H152   C419      1.08779      .   S
    C214   C413      1.39860      .   S
    C213   C215      1.39860      .   S
    O506   Zn29      1.91013      .   S
    O507   Zn30      1.91013      .   S
    C282   C284      1.39870      .   S
    C283   C285      1.39872      .   S
    O455   Zn14      1.91321      .   S
    O454   Zn13      1.91321      .   S
    C291   C289      1.39691      .   S
    C290   C288      1.39609      .   S
    C419   C417      1.39606      .   S
    C418   C416      1.39606      .   S
    O269   Zn24      2.11060      .   S
    O269   C420      1.26440      .   S
    O270   Zn23      2.11029  1_655   S
    O270   C421      1.26440      .   S
    C215   C420      1.49884      .   S
    C215   C414      1.40076      .   S
    C413   C421      1.49886      .   S
    C413   C415      1.40074      .   S
    C285   C293      1.49911      .   S
    C285   C287      1.40066      .   S
    C284   C292      1.49911      .   S
    C284   C286      1.40066      .   S
    O469   Zn8       2.12123      .   S
    O469   C293      1.26333      .   S
    O468   Zn7       2.12125      .   S
    O468   C292      1.26332      .   S
    C289   C287      1.39992      .   S
    C289   C294      1.49666  1_655   S
    C288   C286      1.39993      .   S
    C288   C295      1.49605      .   S
    C417   C415      1.39975      .   S
    C417   C423      1.49714      .   S
    C416   C414      1.39975      .   S
    C416   C422      1.49714      .   S
    Zn24   O274      2.16861      .   S
    Zn24   O435      2.00533      .   S
    Zn23   O273      2.16861      .   S
    Zn23   O434      2.00531      .   S
    Zn8    O473      2.15634      .   S
    Zn8    O487      2.00282      .   S
    Zn7    O472      2.15632      .   S
    Zn7    O486      2.00282      .   S
    O473   C295      1.25873      .   S
    O472   C294      1.25942      .   S
    O273   C422      1.25911      .   S
    O274   C423      1.25911      .   S
    Zn29   O484      1.93718      .   S
    Zn29   O502      1.90209      .   S
    Zn30   O485      1.93719      .   S
    Zn30   O503      1.90209      .   S
    Zn14   O433      1.86219  1_545   S
    Zn14   O451      1.90134      .   S
    Zn13   O432      1.86219  1_545   S
    Zn13   O450      1.90133      .   S
    C420   O271      1.29309      .   S
    C421   O272      1.29309      .   S
    C292   O470      1.29379      .   S
    C293   O471      1.29380      .   S
    C287   H85       1.08735      .   S
    C286   H84       1.08734      .   S
    C414   H149      1.08752      .   S
    C415   H150      1.08751      .   S
    C295   O475      1.29387      .   S
    C294   O474      1.29241      .   S
    C423   O276      1.29252      .   S
    C422   O275      1.29252      .   S
    O434   C185      1.27531      .   S
    O435   C186      1.27530      .   S
    O487   C329      1.27726      .   S
    O486   C328      1.27726      .   S
    O433   C184      1.45943      .   S
    O432   C183      1.45943      .   S
    O484   C326      1.29424      .   S
    O485   C327      1.29424      .   S
    H99    C321      1.08827      .   S
    H98    C320      1.08827      .   S
    H42    C177      1.08817      .   S
    H43    C178      1.08817      .   S
    O503   Zn27      1.98902      .   S
    O502   Zn28      1.98879  1_455   S
    O450   Zn11      1.98992      .   S
    O451   Zn12      1.98989      .   S
    O271   Zn27      1.94421      .   S
    O272   Zn28      1.94421      .   S
    O470   Zn11      1.94446      .   S
    O471   Zn12      1.94446      .   S
    O474   Zn9       1.95237      .   S
    O475   Zn10      1.95235      .   S
    O276   Zn26      1.95122      .   S
    O275   Zn25      1.95122      .   S
    C185   O437      1.28553      .   S
    C185   C179      1.50037      .   S
    C328   O488      1.27315      .   S
    C328   C322      1.50183      .   S
    C329   O489      1.27316      .   S
    C329   C323      1.50183      .   S
    C186   O436      1.27318      .   S
    C186   C180      1.50037      .   S
    C321   C323      1.40007      .   S
    C321   C319      1.40220      .   S
    C320   C322      1.40006      .   S
    C320   C318      1.40220      .   S
    C178   C180      1.39947      .   S
    C178   C176      1.40141      .   S
    C177   C179      1.39948      .   S
    C177   C175      1.40140      .   S
    C326   C318      1.49431      .   S
    C326   O482      1.26691      .   S
    C327   C319      1.49431      .   S
    C327   O483      1.26691      .   S
    C183   C175      1.49242      .   S
    C183   O430      1.26684  1_565   S
    C184   C176      1.49241      .   S
    C184   O431      1.26684  1_565   S
    Zn12   O489      2.02759      .   S
    Zn12   O493      1.98167      .   S
    Zn11   O488      2.02759      .   S
    Zn11   O492      1.98167      .   S
    Zn27   O436      2.02300      .   S
    Zn27   O441      1.98231      .   S
    Zn28   O437      2.02040  1_655   S
    Zn28   O440      1.98225  1_655   S
    Zn25   O482      2.01094      .   S
    Zn25   O438      1.93448      .   S
    Zn26   O483      2.01095      .   S
    Zn26   O439      1.93448      .   S
    Zn10   O431      2.01002      .   S
    Zn10   O491      1.93512      .   S
    Zn9    O430      2.01003      .   S
    Zn9    O490      1.93512      .   S
    C322   C324      1.39887      .   S
    C323   C325      1.39886      .   S
    C179   C181      1.39847      .   S
    C180   C182      1.39848      .   S
    C318   C316      1.39967      .   S
    C319   C317      1.39966      .   S
    C176   C174      1.40103      .   S
    C175   C173      1.40102      .   S
    C324   H104      1.08770      .   S
    C324   C314      1.40847      .   S
    C325   H105      1.08770      .   S
    C325   C315      1.40847      .   S
    C182   H44       1.08766      .   S
    C182   C172      1.40834      .   S
    C181   H45       1.08750  1_455   S
    C181   C171      1.40836      .   S
    C317   H97       1.08870      .   S
    C317   C315      1.40825      .   S
    C316   H96       1.08870      .   S
    C316   C314      1.40825      .   S
    O439   C188      1.28271      .   S
    O438   C187      1.28273      .   S
    O491   C331      1.28271      .   S
    O490   C330      1.28271      .   S
    C174   H41       1.08776      .   S
    C174   C172      1.40717      .   S
    C173   H40       1.08778      .   S
    C173   C171      1.40717      .   S
    O493   C331      1.28236      .   S
    O492   C330      1.28236      .   S
    O441   C188      1.28258      .   S
    O440   C187      1.28256      .   S
    C314   C312      1.41963      .   S
    C315   C313      1.41963      .   S
    C172   C169      1.41893      .   S
    C171   C170      1.41881  1_455   S
    C331   C333      1.48368      .   S
    C330   C332      1.48367      .   S
    C188   C190      1.48330      .   S
    C187   C189      1.48330      .   S
    H46    C191      1.08682      .   S
    H47    C192      1.08680      .   S
    H107   C335      1.08865      .   S
    H106   C334      1.08752      .   S
    C312   C310      1.22122      .   S
    C313   C311      1.21965      .   S
    C170   C168      1.22088      .   S
    C169   C167      1.22088      .   S
    C332   C334      1.40556      .   S
    C332   C342      1.40381      .   S
    C333   C335      1.40586      .   S
    C333   C343      1.40381      .   S
    C190   C192      1.40531      .   S
    C190   C200      1.40365      .   S
    C189   C191      1.40531      .   S
    C189   C199      1.40365      .   S
    H112   C342      1.08942      .   S
    H113   C343      1.08940      .   S
    H53    C199      1.08918  1_655   S
    H52    C200      1.08944      .   S
    C191   C193      1.38547      .   S
    C192   C194      1.38546      .   S
    C334   C336      1.38473      .   S
    C335   C337      1.38396      .   S
    C343   C341      1.38965      .   S
    C342   C340      1.38965      .   S
    C200   C198      1.38944      .   S
    C199   C197      1.38944  1_455   S
    C311   C305      1.41822      .   S
    C310   C304      1.41668      .   S
    C168   C162      1.41593      .   S
    C167   C161      1.41593      .   S
    C336   H108      1.08917      .   S
    C336   C338      1.41329      .   S
    C337   H109      1.08919      .   S
    C337   C339      1.41327      .   S
    C193   H48       1.08928      .   S
    C193   C195      1.41253      .   S
    C194   H49       1.08927      .   S
    C194   C196      1.41253      .   S
    C340   C338      1.41357      .   S
    C340   H110      1.08936      .   S
    C341   C339      1.41356      .   S
    C341   H111      1.08937      .   S
    C198   C196      1.41319      .   S
    C198   H50       1.08945      .   S
    C197   C195      1.41320  1_655   S
    C197   H51       1.08921      .   S
    H36    C163      1.08900      .   S
    H37    C164      1.08900      .   S
    H93    C307      1.08909      .   S
    H92    C306      1.08909      .   S
    C305   C307      1.41422      .   S
    C305   C303      1.41386      .   S
    C304   C306      1.41420      .   S
    C304   C302      1.41385      .   S
    C162   C164      1.41408      .   S
    C162   C160      1.41367      .   S
    C161   C163      1.41408      .   S
    C161   C159      1.41367      .   S
    C338   C344      1.41261      .   S
    C339   C345      1.41261      .   S
    C195   C201      1.41308      .   S
    C196   C202      1.41308      .   S
    H91    C303      1.08939      .   S
    H90    C302      1.08937      .   S
    C307   C309      1.38787      .   S
    C306   C308      1.38787      .   S
    C164   C166      1.38761      .   S
    C163   C165      1.38762      .   S
    H34    C159      1.08942      .   S
    H35    C160      1.08942      .   S
    C303   C301      1.38848      .   S
    C302   C300      1.38849      .   S
    C160   C158      1.38799      .   S
    C159   C157      1.38799      .   S
    C344   C346      1.21826      .   S
    C345   C347      1.21826      .   S
    C201   C203      1.21942      .   S
    C202   C204      1.21942      .   S
    C309   H95       1.08927      .   S
    C309   C299      1.40582      .   S
    C308   H94       1.08891      .   S
    C308   C298      1.40580      .   S
    C165   H38       1.08919      .   S
    C165   C155      1.40554      .   S
    C166   H39       1.08921      .   S
    C166   C156      1.40553      .   S
    C301   C299      1.40526      .   S
    C301   H89       1.08862      .   S
    C300   C298      1.40525      .   S
    C300   H88       1.08862      .   S
    C157   C155      1.40533      .   S
    C157   H31       1.08546      .   S
    C158   C156      1.40533      .   S
    C158   H33       1.08863      .   S
    C298   C296      1.48903      .   S
    C299   C297      1.48903      .   S
    C156   C154      1.48816      .   S
    C155   C153      1.48816      .   S
    C347   C349      1.41776      .   S
    C346   C348      1.41776      .   S
    C203   C205      1.41551      .   S
    C204   C206      1.41552      .   S
    C296   O478      1.26392      .   S
    C296   O480      1.30229      .   S
    C297   O479      1.26392      .   S
    C297   O481      1.30229      .   S
    C153   O426      1.26436      .   S
    C153   O428      1.30114      .   S
    C154   O427      1.26435      .   S
    C154   O429      1.30115      .   S
    C348   C350      1.40878      .   S
    C348   C358      1.40687      .   S
    C349   C351      1.40880      .   S
    C349   C359      1.40687      .   S
    C206   C100      1.40871      .   S
    C206   C220      1.40681      .   S
    C205   C207      1.40873      .   S
    C205   C219      1.40681      .   S
    H115   C351      1.08837      .   S
    H114   C350      1.08839      .   S
    H55    C100      1.08847      .   S
    H54    C207      1.08847      .   S
    O478   Zn15      2.03483      .   S
    O479   Zn16      2.03483      .   S
    H119   C359      1.08877      .   S
    H118   C358      1.08877      .   S
    O426   Zn32      2.03251      .   S
    O427   Zn0       2.03251      .   S
    H58    C220      1.08786      .   S
    H59    C219      1.08760  1_655   S
    C350   C352      1.39648      .   S
    C351   C353      1.39648      .   S
    O480   Zn21      1.90964      .   S
    O481   Zn22      1.90964      .   S
    C207   C101      1.39845      .   S
    C100   C102      1.39845      .   S
    O428   Zn5       1.91178      .   S
    O429   Zn6       1.91178      .   S
    C359   C357      1.39567      .   S
    C358   C356      1.39567      .   S
    C220   C218      1.39555      .   S
    C219   C217      1.39555      .   S
    C353   C361      1.49938      .   S
    C353   C355      1.40085      .   S
    C352   C360      1.49938      .   S
    C352   C354      1.40087      .   S
    O494   Zn16      2.11083  1_455   S
    O494   C360      1.26383      .   S
    O495   Zn15      2.11115      .   S
    O495   C361      1.26383      .   S
    O443   Zn0       2.12155      .   S
    O443   C222      1.26324      .   S
    O442   Zn32      2.12152      .   S
    O442   C221      1.26326      .   S
    C102   C222      1.49831      .   S
    C102   C216      1.40056      .   S
    C101   C221      1.49831      .   S
    C101   C103      1.40056      .   S
    C357   C355      1.39908      .   S
    C357   C363      1.49643      .   S
    C356   C354      1.39906      .   S
    C356   C362      1.49643      .   S
    C217   C103      1.39966      .   S
    C217   C224      1.49583  1_455   S
    C218   C216      1.39966      .   S
    C218   C223      1.49609      .   S
    Zn0    O447      2.15712      .   S
    Zn0    O513      1.99818      .   S
    Zn32   O446      2.15714      .   S
    Zn32   O512      1.99818      .   S
    Zn16   O499      2.15951      .   S
    Zn16   O461      1.99833      .   S
    Zn15   O498      2.15951      .   S
    Zn15   O460      1.99833      .   S
    O499   C363      1.25942      .   S
    O498   C362      1.25942      .   S
    O447   C224      1.25954      .   S
    O446   C223      1.25954      .   S
    Zn21   O510      1.93877      .   S
    Zn21   O476      1.89898      .   S
    Zn22   O511      1.93877      .   S
    Zn22   O477      1.89897      .   S
    Zn5    O458      1.93610  1_565   S
    Zn5    O424      1.89403      .   S
    Zn6    O459      1.93611  1_565   S
    Zn6    O425      1.89403      .   S
    C222   O445      1.29376      .   S
    C221   O444      1.29376      .   S
    C361   O497      1.29329      .   S
    C360   O496      1.29329      .   S
    C354   H116      1.08877      .   S
    C355   H117      1.08877      .   S
    C103   H56       1.07157      .   S
    C216   H57       1.07157      .   S
    C362   O500      1.29207      .   S
    C363   O501      1.29207      .   S
    C223   O448      1.29235      .   S
    C224   O449      1.29236      .   S
    O513   C397      1.27582      .   S
    O512   C396      1.27583      .   S
    O460   C257      1.27596      .   S
    O461   C258      1.27596      .   S
    O511   C395      1.29446      .   S
    O510   C394      1.29446      .   S
    O459   C256      1.29428      .   S
    O458   C255      1.29428      .   S
    H130   C388      1.08807      .   S
    H131   C389      1.08807      .   S
    H70    C249      1.10673      .   S
    H71    C250      1.10673      .   S
    O477   Zn19      1.98375  1_655   S
    O476   Zn20      1.98396      .   S
    O424   Zn3       1.98711      .   S
    O425   Zn4       1.98711      .   S
    O444   Zn3       1.94188      .   S
    O445   Zn4       1.94188      .   S
    O496   Zn19      1.94549      .   S
    O497   Zn20      1.94551      .   S
    O500   Zn17      1.94983      .   S
    O501   Zn18      1.94983      .   S
    O448   Zn1       1.94874      .   S
    O449   Zn2       1.94873      .   S
    C396   O514      1.27252      .   S
    C396   C390      1.50067      .   S
    C397   O515      1.27252      .   S
    C397   C391      1.50067      .   S
    C258   O462      1.27269      .   S
    C258   C252      1.50178      .   S
    C257   O463      1.27284      .   S
    C257   C251      1.50178      .   S
    C389   C391      1.39960      .   S
    C389   C387      1.40141      .   S
    C388   C390      1.39960      .   S
    C388   C386      1.40141      .   S
    C250   C252      1.40004      .   S
    C250   C248      1.40227      .   S
    C249   C251      1.40004      .   S
    C249   C247      1.40227      .   S
    C395   C387      1.49355      .   S
    C395   O509      1.26676      .   S
    C394   C386      1.49355      .   S
    C394   O508      1.26676      .   S
    C256   C248      1.49367      .   S
    C256   O457      1.26705  1_545   S
    C255   C247      1.49368      .   S
    C255   O456      1.26705  1_545   S
    Zn3    O514      2.02737      .   S
    Zn3    O518      1.98181      .   S
    Zn4    O515      2.02737      .   S
    Zn4    O519      1.98181      .   S
    Zn19   O462      2.03029  1_455   S
    Zn19   O467      1.98218  1_455   S
    Zn20   O463      2.03029      .   S
    Zn20   O466      1.98224      .   S
    Zn17   O508      2.00565      .   S
    Zn17   O464      1.93665      .   S
    Zn18   O509      2.00564      .   S
    Zn18   O465      1.93665      .   S
    Zn2    O457      2.01667      .   S
    Zn2    O517      1.93688      .   S
    Zn1    O456      2.01667      .   S
    Zn1    O516      1.93687      .   S
    C391   C393      1.39898      .   S
    C390   C392      1.39897      .   S
    C251   C253      1.39884      .   S
    C252   C254      1.39884      .   S
    C387   C385      1.40127      .   S
    C386   C384      1.40126      .   S
    C247   C245      1.40048      .   S
    C248   C246      1.40048      .   S
    C392   H137      1.08764      .   S
    C392   C382      1.40840      .   S
    C393   H138      1.08767      .   S
    C393   C383      1.40840      .   S
    C254   H72       1.08765  1_655   S
    C254   C244      1.40845      .   S
    C253   H73       1.08780      .   S
    C253   C243      1.40847      .   S
    C384   H128      1.08492      .   S
    C384   C382      1.40751      .   S
    C385   H129      1.08771      .   S
    C385   C383      1.40749      .   S
    O465   C260      1.28277      .   S
    O464   C259      1.28276      .   S
    O516   C398      1.28331      .   S
    O517   C399      1.28329      .   S
    C246   H69       1.08791      .   S
    C246   C244      1.40756      .   S
    C245   H68       1.08791      .   S
    C245   C243      1.40754      .   S
    O518   C398      1.28250      .   S
    O519   C399      1.28250      .   S
    O467   C260      1.28252      .   S
    O466   C259      1.28251      .   S
    C383   C381      1.41943      .   S
    C382   C380      1.41943      .   S
    C260   C262      1.48387      .   S
    C259   C261      1.48390      .   S
    C243   C242      1.41902      .   S
    C244   C241      1.41890  1_655   S
    C399   C401      1.48368      .   S
    C398   C400      1.48368      .   S
    H74    C263      1.08807      .   S
    H75    C264      1.08807      .   S
    H140   C403      1.08808      .   S
    H139   C402      1.08810      .   S
    C381   C379      1.21998      .   S
    C380   C378      1.22156      .   S
    C241   C239      1.22121      .   S
    C242   C240      1.22122      .   S
    C261   C263      1.40599      .   S
    C261   C134      1.40385      .   S
    C262   C264      1.40599      .   S
    C262   C135      1.40386      .   S
    C400   C402      1.40591      .   S
    C400   C410      1.40406      .   S
    C401   C403      1.40593      .   S
    C401   C411      1.40406      .   S
    H145   C410      1.08943      .   S
    H146   C411      1.08942      .   S
    H81    C134      1.08945      .   S
    H80    C135      1.08919  1_455   S
    C264   C266      1.38204      .   S
    C263   C265      1.38388      .   S
    C402   C404      1.38375      .   S
    C403   C405      1.38375      .   S
    C411   C409      1.38954      .   S
    C410   C408      1.38953      .   S
    C135   C133      1.38805  1_655   S
    C134   C132      1.38936      .   S
    C379   C373      1.41787      .   S
    C378   C372      1.41632      .   S
    C239   C233      1.41592      .   S
    C240   C234      1.41592      .   S
    C266   H77       1.08994      .   S
    C266   C268      1.41447      .   S
    C265   H76       1.08926      .   S
    C265   C267      1.41331      .   S
    C405   H142      1.08925      .   S
    C405   C407      1.41343      .   S
    C404   H141      1.08927      .   S
    C404   C406      1.41341      .   S
    C409   C407      1.41356      .   S
    C409   H144      1.08949      .   S
    C408   C406      1.41356      .   S
    C408   H143      1.08949      .   S
    C133   C268      1.40768  1_455   S
    C133   H78       1.09653      .   S
    C132   C267      1.41366      .   S
    C132   H79       1.08949      .   S
    H125   C375      1.08925      .   S
    H124   C374      1.08925      .   S
    H65    C236      1.08912      .   S
    H64    C235      1.08915      .   S
    C373   C375      1.41422      .   S
    C373   C371      1.41387      .   S
    C372   C374      1.41422      .   S
    C372   C370      1.41389      .   S
    C234   C236      1.41408      .   S
    C234   C232      1.41371      .   S
    C233   C235      1.41408      .   S
    C233   C231      1.41371      .   S
    H123   C371      1.08922      .   S
    H122   C370      1.08922      .   S
    H63    C232      1.08901      .   S
    H62    C231      1.08899      .   S
    O424   Zn32      2.04759      .   S
    O424   Zn1       2.00255      .   S
    O425   Zn0       2.04759      .   S
    O425   Zn2       2.00257      .   S
    O450   Zn7       2.04924      .   S
    O450   Zn9       2.00170      .   S
    O451   Zn8       2.04923      .   S
    O451   Zn10      2.00172      .   S
    O476   Zn15      2.05156      .   S
    O476   Zn17      2.00337      .   S
    O477   Zn16      2.05156      .   S
    O477   Zn18      2.00337      .   S
    O502   Zn23      2.04395      .   S
    O502   Zn25      2.00297      .   S
    O503   Zn24      2.04395      .   S
    O503   Zn26      2.00297      .   S
