# CIF file generated by openbabel 2.4.90, see http://openbabel.sf.net
data_I
_chemical_name_common ''
_cell_length_a 22.672
_cell_length_b 22.189
_cell_length_c 29.054
_cell_angle_alpha 90.096
_cell_angle_beta 90.041
_cell_angle_gamma 89.324
_space_group_name_H-M_alt 'P 1'
_space_group_name_Hall 'P 1'
loop_
    _symmetry_equiv_pos_as_xyz
    x,y,z
loop_
    _atom_site_label
    _atom_site_type_symbol
    _atom_site_fract_x
    _atom_site_fract_y
    _atom_site_fract_z
    _atom_site_occupancy
    Zn0     Zn   0.80740   0.83088   0.67780   1.000
    Zn1     Zn   0.37766   0.89592   0.76660   1.000
    Zn2     Zn   0.87767   0.89592   0.76660   1.000
    Zn3     Zn   0.24243   0.87738   0.76006   1.000
    Zn4     Zn   0.74244   0.87738   0.76006   1.000
    Zn5     Zn   0.34518   0.96369   0.68573   1.000
    Zn6     Zn   0.84519   0.96369   0.68573   1.000
    Zn7     Zn   0.19255   0.16807   0.17780   1.000
    Zn8     Zn   0.69255   0.16807   0.17780   1.000
    Zn9     Zn   0.12237   0.10192   0.26620   1.000
    Zn10    Zn   0.62237   0.10192   0.26620   1.000
    Zn11    Zn   0.25761   0.12257   0.25995   1.000
    Zn12    Zn   0.75761   0.12257   0.25995   1.000
    Zn13    Zn   0.15525   0.03419   0.18574   1.000
    Zn14    Zn   0.65526   0.03419   0.18574   1.000
    Zn15    Zn   0.44226   0.32860   0.67781   1.000
    Zn16    Zn   0.94227   0.32860   0.67781   1.000
    Zn17    Zn   0.36999   0.39566   0.76593   1.000
    Zn18    Zn   0.87000   0.39566   0.76593   1.000
    Zn19    Zn   0.00536   0.37466   0.76012   1.000
    Zn20    Zn   0.50537   0.37466   0.76012   1.000
    Zn21    Zn   0.40466   0.46307   0.68436   1.000
    Zn22    Zn   0.90467   0.46307   0.68436   1.000
    Zn23    Zn   0.05523   0.66971   0.17756   1.000
    Zn24    Zn   0.55524   0.66971   0.17756   1.000
    Zn25    Zn   0.12772   0.60417   0.26592   1.000
    Zn26    Zn   0.62772   0.60417   0.26592   1.000
    Zn27    Zn   0.49235   0.62498   0.25999   1.000
    Zn28    Zn   0.99236   0.62498   0.25999   1.000
    Zn29    Zn   0.09508   0.53680   0.18424   1.000
    Zn30    Zn   0.59508   0.53680   0.18424   1.000
    Zn31    Zn   0.30739   0.83088   0.67780   1.000
    C32     C    0.35496   0.90197   0.59935   1.000
    C33     C    0.85496   0.90197   0.59935   1.000
    C34     C    0.10096   0.97018   0.25795   1.000
    C35     C    0.60097   0.97018   0.25795   1.000
    C36     C    0.02806   0.75644   0.24615   1.000
    C37     C    0.52807   0.75644   0.24615   1.000
    C38     C    0.05519   0.64142   0.34243   1.000
    C39     C    0.55520   0.64142   0.34243   1.000
    C40     C    0.16952   0.85577   0.68722   1.000
    C41     C    0.66953   0.85577   0.68722   1.000
    C42     C    0.44798   0.84246   0.69753   1.000
    C43     C    0.94799   0.84246   0.69753   1.000
    C44     C    0.14489   0.09576   0.09900   1.000
    C45     C    0.64490   0.09576   0.09900   1.000
    C46     C    0.40005   0.02772   0.75802   1.000
    C47     C    0.90006   0.02772   0.75802   1.000
    C48     C    0.47020   0.24268   0.74658   1.000
    C49     C    0.97020   0.24268   0.74658   1.000
    C50     C    0.44248   0.35857   0.84251   1.000
    C51     C    0.94248   0.35857   0.84251   1.000
    O52     O    0.46407   0.66154   0.16457   1.000
    O53     O    0.96408   0.66154   0.16457   1.000
    O54     O    0.41843   0.61963   0.22635   1.000
    O55     O    0.91844   0.61963   0.22635   1.000
    O56     O    0.15023   0.67956   0.18008   1.000
    O57     O    0.65024   0.67956   0.18008   1.000
    O58     O    0.20040   0.62748   0.23512   1.000
    O59     O    0.70040   0.62748   0.23512   1.000
    C60     C    0.33051   0.14416   0.18710   1.000
    C61     C    0.83052   0.14416   0.18710   1.000
    C62     C    0.05227   0.15619   0.19676   1.000
    C63     C    0.55227   0.15619   0.19670   1.000
    C64     C    0.39479   0.40039   0.59865   1.000
    C65     C    0.89480   0.40039   0.59865   1.000
    C66     C    0.15021   0.47169   0.25633   1.000
    C67     C    0.65022   0.47169   0.25633   1.000
    C68     C    0.22008   0.25467   0.24615   1.000
    C69     C    0.72008   0.25467   0.24615   1.000
    C70     C    0.19479   0.13916   0.34241   1.000
    C71     C    0.69479   0.13916   0.34241   1.000
    C72     C    0.07905   0.35325   0.68725   1.000
    C73     C    0.57906   0.35325   0.68725   1.000
    C74     C    0.30094   0.34209   0.69711   1.000
    C75     C    0.80094   0.34209   0.69711   1.000
    C76     C    0.10484   0.59938   0.09856   1.000
    C77     C    0.60484   0.59938   0.09856   1.000
    C78     C    0.34889   0.52819   0.75650   1.000
    C79     C    0.84889   0.52819   0.75650   1.000
    C80     C    0.27968   0.74515   0.74634   1.000
    C81     C    0.77969   0.74515   0.74634   1.000
    C82     C    0.30487   0.85992   0.84262   1.000
    C83     C    0.80487   0.85992   0.84262   1.000
    C84     C    0.41875   0.64557   0.18653   1.000
    C85     C    0.91876   0.64557   0.18653   1.000
    C86     C    0.19680   0.65771   0.19721   1.000
    C87     C    0.69680   0.65771   0.19721   1.000
    O88     O    0.31054   0.90274   0.72200   1.000
    O89     O    0.81055   0.90274   0.72200   1.000
    O90     O    0.32258   0.85929   0.61245   1.000
    O91     O    0.82258   0.85929   0.61245   1.000
    O92     O    0.36508   0.95103   0.62249   1.000
    O93     O    0.86509   0.95103   0.62249   1.000
    O94     O    0.10531   0.01621   0.28352   1.000
    O95     O    0.60532   0.01621   0.28352   1.000
    O96     O    0.11973   0.96600   0.21000   1.000
    O97     O    0.61974   0.96600   0.21000   1.000
    O98     O    0.05012   0.75207   0.20590   1.000
    O99     O    0.55013   0.75207   0.20590   1.000
    O100    O    0.50111   0.71507   0.26762   1.000
    O101    O    0.00000   0.71507   0.26762   1.000
    O102    O    0.10497   0.64579   0.32183   1.000
    O103    O    0.60498   0.64579   0.32183   1.000
    O104    O    0.00995   0.61432   0.32634   1.000
    O105    O    0.50995   0.61432   0.32634   1.000
    O106    O    0.21530   0.83872   0.66587   1.000
    O107    O    0.71530   0.83872   0.66587   1.000
    O108    O    0.16839   0.88302   0.72662   1.000
    O109    O    0.66840   0.88302   0.72662   1.000
    O110    O    0.40208   0.82060   0.68006   1.000
    O111    O    0.90209   0.82060   0.68006   1.000
    O112    O    0.45063   0.87239   0.73566   1.000
    O113    O    0.95063   0.87239   0.73566   1.000
    O114    O    0.18969   0.09610   0.22182   1.000
    O115    O    0.68970   0.09610   0.22182   1.000
    O116    O    0.17748   0.13825   0.11283   1.000
    O117    O    0.67749   0.13825   0.11283   1.000
    O118    O    0.13479   0.04662   0.12254   1.000
    O119    O    0.63480   0.04662   0.12254   1.000
    O120    O    0.39504   0.98201   0.78374   1.000
    O121    O    0.89505   0.98201   0.78374   1.000
    O122    O    0.38225   0.03138   0.71577   1.000
    O123    O    0.88226   0.03138   0.71577   1.000
    O124    O    0.44725   0.24696   0.70659   1.000
    O125    O    0.94725   0.24696   0.70659   1.000
    O126    O    0.99730   0.28421   0.76785   1.000
    O127    O    0.49731   0.28421   0.76785   1.000
    O128    O    0.39264   0.35416   0.82192   1.000
    O129    O    0.89265   0.35416   0.82192   1.000
    O130    O    0.48767   0.38564   0.82643   1.000
    O131    O    0.98767   0.38564   0.82643   1.000
    O132    O    0.28467   0.16122   0.16583   1.000
    O133    O    0.78468   0.16122   0.16583   1.000
    O134    O    0.33173   0.11709   0.22650   1.000
    O135    O    0.83174   0.11709   0.22650   1.000
    O136    O    0.09797   0.17916   0.17995   1.000
    O137    O    0.59798   0.17916   0.17995   1.000
    O138    O    0.04981   0.12485   0.23415   1.000
    O139    O    0.54982   0.12485   0.23415   1.000
    O140    O    0.43747   0.40101   0.72170   1.000
    O141    O    0.93748   0.40101   0.72170   1.000
    O142    O    0.42690   0.35702   0.61229   1.000
    O143    O    0.92690   0.35702   0.61229   1.000
    O144    O    0.38500   0.45028   0.62120   1.000
    O145    O    0.88501   0.45028   0.62120   1.000
    O146    O    0.14524   0.51768   0.28200   1.000
    O147    O    0.64525   0.51768   0.28200   1.000
    O148    O    0.13242   0.46828   0.21408   1.000
    O149    O    0.63242   0.46828   0.21408   1.000
    O150    O    0.19725   0.25024   0.20610   1.000
    O151    O    0.69726   0.25024   0.20610   1.000
    O152    O    0.24723   0.21289   0.26777   1.000
    O153    O    0.74724   0.21289   0.26777   1.000
    O154    O    0.14472   0.14354   0.32202   1.000
    O155    O    0.64473   0.14354   0.32202   1.000
    O156    O    0.24035   0.11167   0.32625   1.000
    O157    O    0.74035   0.11167   0.32625   1.000
    O158    O    0.03371   0.33601   0.66584   1.000
    O159    O    0.53372   0.33601   0.66584   1.000
    O160    O    0.07946   0.38020   0.72675   1.000
    O161    O    0.57947   0.38020   0.72675   1.000
    O162    O    0.34749   0.32031   0.67988   1.000
    O163    O    0.84750   0.32031   0.67988   1.000
    O164    O    0.29734   0.37224   0.73511   1.000
    O165    O    0.79735   0.37224   0.73511   1.000
    O166    O    0.06034   0.59809   0.22159   1.000
    O167    O    0.56035   0.59809   0.22159   1.000
    O168    O    0.07230   0.64251   0.11208   1.000
    O169    O    0.57230   0.64251   0.11208   1.000
    O170    O    0.11507   0.54974   0.12120   1.000
    O171    O    0.61508   0.54974   0.12120   1.000
    O172    O    0.35266   0.48202   0.78196   1.000
    O173    O    0.85267   0.48202   0.78196   1.000
    O174    O    0.36757   0.53169   0.71451   1.000
    O175    O    0.86758   0.53169   0.71451   1.000
    O176    O    0.30271   0.74926   0.70643   1.000
    O177    O    0.80271   0.74926   0.70643   1.000
    O178    O    0.25240   0.78704   0.76777   1.000
    O179    O    0.75241   0.78704   0.76777   1.000
    O180    O    0.35480   0.85423   0.82220   1.000
    O181    O    0.85481   0.85423   0.82220   1.000
    O182    O    0.25984   0.88826   0.82639   1.000
    O183    O    0.75985   0.88826   0.82639   1.000
    Og184   Og   0.36492   0.90034   0.58420   1.000
    Og185   Og   0.86493   0.90034   0.58420   1.000
    Og186   Og   0.09100   0.95230   0.26455   1.000
    Og187   Og   0.59101   0.95230   0.26455   1.000
    Og188   Og   0.03032   0.77587   0.25468   1.000
    Og189   Og   0.53033   0.77587   0.25468   1.000
    Og190   Og   0.05394   0.65131   0.35766   1.000
    Og191   Og   0.55395   0.65131   0.35766   1.000
    Og192   Og   0.14996   0.85136   0.68013   1.000
    Og193   Og   0.64997   0.85136   0.68013   1.000
    Og194   Og   0.46689   0.83980   0.68896   1.000
    Og195   Og   0.96689   0.83980   0.68896   1.000
    Og196   Og   0.13485   0.09752   0.08407   1.000
    Og197   Og   0.63486   0.09752   0.08407   1.000
    Og198   Og   0.40984   0.04574   0.76464   1.000
    Og199   Og   0.90985   0.04574   0.76464   1.000
    Og200   Og   0.46821   0.22319   0.75507   1.000
    Og201   Og   0.96822   0.22319   0.75507   1.000
    Og202   Og   0.44380   0.34872   0.85774   1.000
    Og203   Og   0.94380   0.34872   0.85774   1.000
    Og204   Og   0.35005   0.14852   0.17997   1.000
    Og205   Og   0.85006   0.14852   0.17997   1.000
    Og206   Og   0.03332   0.15899   0.18824   1.000
    Og207   Og   0.53332   0.15899   0.18820   1.000
    Og208   Og   0.38483   0.39875   0.58349   1.000
    Og209   Og   0.88484   0.39875   0.58349   1.000
    Og210   Og   0.15999   0.45350   0.26303   1.000
    Og211   Og   0.65999   0.45350   0.26303   1.000
    Og212   Og   0.21808   0.27434   0.25451   1.000
    Og213   Og   0.71809   0.27434   0.25451   1.000
    Og214   Og   0.19604   0.14920   0.35758   1.000
    Og215   Og   0.69605   0.14920   0.35758   1.000
    Og216   Og   0.09870   0.34904   0.68007   1.000
    Og217   Og   0.59870   0.34904   0.68007   1.000
    Og218   Og   0.28210   0.33928   0.68852   1.000
    Og219   Og   0.78211   0.33928   0.68852   1.000
    Og220   Og   0.11481   0.60107   0.08343   1.000
    Og221   Og   0.61482   0.60107   0.08343   1.000
    Og222   Og   0.33922   0.54644   0.76322   1.000
    Og223   Og   0.83922   0.54644   0.76322   1.000
    Og224   Og   0.28165   0.72556   0.75473   1.000
    Og225   Og   0.78166   0.72556   0.75473   1.000
    Og226   Og   0.30341   0.85005   0.85782   1.000
    Og227   Og   0.80342   0.85005   0.85782   1.000
    Og228   Og   0.39905   0.64991   0.17948   1.000
    Og229   Og   0.89906   0.64991   0.17948   1.000
    Og230   Og   0.21561   0.66049   0.18861   1.000
    Og231   Og   0.71562   0.66049   0.18861   1.000
loop_
    _geom_bond_atom_site_label_1
    _geom_bond_atom_site_label_2
    _geom_bond_distance
    _geom_bond_site_symmetry_2
    _ccdc_geom_bond_type
    C77    O169      1.26385      .   S
    C77    O171      1.30221      .   S
    C76    O168      1.26385      .   S
    C76    O170      1.30221      .   S
    C45    O117      1.26941      .   S
    C45    O119      1.31046      .   S
    C44    O116      1.26941      .   S
    C44    O118      1.31046      .   S
    O168   Zn23      2.03096      .   S
    O169   Zn24      2.03096      .   S
    O117   Zn8       2.02920      .   S
    O116   Zn7       2.02920      .   S
    O170   Zn29      1.91013      .   S
    O171   Zn30      1.91013      .   S
    O119   Zn14      1.91321      .   S
    O118   Zn13      1.91321      .   S
    O52    Zn24      2.11060      .   S
    O52    C84       1.26440      .   S
    O53    Zn23      2.11029  1_655   S
    O53    C85       1.26440      .   S
    O133   Zn8       2.12123      .   S
    O133   C61       1.26333      .   S
    O132   Zn7       2.12125      .   S
    O132   C60       1.26332      .   S
    Zn24   O57       2.16861      .   S
    Zn24   O99       2.00533      .   S
    Zn23   O56       2.16861      .   S
    Zn23   O98       2.00531      .   S
    Zn8    O137      2.15634      .   S
    Zn8    O151      2.00282      .   S
    Zn7    O136      2.15632      .   S
    Zn7    O150      2.00282      .   S
    O137   C63       1.25873      .   S
    O136   C62       1.25942      .   S
    O56    C86       1.25911      .   S
    O57    C87       1.25911      .   S
    Zn29   O148      1.93718      .   S
    Zn29   O166      1.90209      .   S
    Zn30   O149      1.93719      .   S
    Zn30   O167      1.90209      .   S
    Zn14   O97       1.86219  1_545   S
    Zn14   O115      1.90134      .   S
    Zn13   O96       1.86219  1_545   S
    Zn13   O114      1.90133      .   S
    C84    O54       1.29309      .   S
    C85    O55       1.29309      .   S
    C60    O134      1.29379      .   S
    C61    O135      1.29380      .   S
    C63    O139      1.29387      .   S
    C62    O138      1.29241      .   S
    C87    O59       1.29252      .   S
    C86    O58       1.29252      .   S
    O98    C36       1.27531      .   S
    O99    C37       1.27530      .   S
    O151   C69       1.27726      .   S
    O150   C68       1.27726      .   S
    O97    C35       1.45943      .   S
    O96    C34       1.45943      .   S
    O148   C66       1.29424      .   S
    O149   C67       1.29424      .   S
    O167   Zn27      1.98902      .   S
    O166   Zn28      1.98879  1_455   S
    O114   Zn11      1.98992      .   S
    O115   Zn12      1.98989      .   S
    O54    Zn27      1.94421      .   S
    O55    Zn28      1.94421      .   S
    O134   Zn11      1.94446      .   S
    O135   Zn12      1.94446      .   S
    O138   Zn9       1.95237      .   S
    O139   Zn10      1.95235      .   S
    O59    Zn26      1.95122      .   S
    O58    Zn25      1.95122      .   S
    C36    O101      1.28553      .   S
    C68    O152      1.27315      .   S
    C69    O153      1.27316      .   S
    C37    O100      1.27318      .   S
    C66    O146      1.26691      .   S
    C67    O147      1.26691      .   S
    C34    O94       1.26684  1_565   S
    C35    O95       1.26684  1_565   S
    Zn12   O153      2.02759      .   S
    Zn12   O157      1.98167      .   S
    Zn11   O152      2.02759      .   S
    Zn11   O156      1.98167      .   S
    Zn27   O100      2.02300      .   S
    Zn27   O105      1.98231      .   S
    Zn28   O101      2.02040  1_655   S
    Zn28   O104      1.98225  1_655   S
    Zn25   O146      2.01094      .   S
    Zn25   O102      1.93448      .   S
    Zn26   O147      2.01095      .   S
    Zn26   O103      1.93448      .   S
    Zn10   O95       2.01002      .   S
    Zn10   O155      1.93512      .   S
    Zn9    O94       2.01003      .   S
    Zn9    O154      1.93512      .   S
    O103   C39       1.28271      .   S
    O102   C38       1.28273      .   S
    O155   C71       1.28271      .   S
    O154   C70       1.28271      .   S
    O157   C71       1.28236      .   S
    O156   C70       1.28236      .   S
    O105   C39       1.28258      .   S
    O104   C38       1.28256      .   S
    C64    O142      1.26392      .   S
    C64    O144      1.30229      .   S
    C65    O143      1.26392      .   S
    C65    O145      1.30229      .   S
    C32    O90       1.26436      .   S
    C32    O92       1.30114      .   S
    C33    O91       1.26435      .   S
    C33    O93       1.30115      .   S
    O142   Zn15      2.03483      .   S
    O143   Zn16      2.03483      .   S
    O90    Zn31      2.03251      .   S
    O91    Zn0       2.03251      .   S
    O144   Zn21      1.90964      .   S
    O145   Zn22      1.90964      .   S
    O92    Zn5       1.91178      .   S
    O93    Zn6       1.91178      .   S
    O158   Zn16      2.11083  1_455   S
    O158   C72       1.26383      .   S
    O159   Zn15      2.11115      .   S
    O159   C73       1.26383      .   S
    O107   Zn0       2.12155      .   S
    O107   C41       1.26324      .   S
    O106   Zn31      2.12152      .   S
    O106   C40       1.26326      .   S
    Zn0    O111      2.15712      .   S
    Zn0    O177      1.99818      .   S
    Zn31   O110      2.15714      .   S
    Zn31   O176      1.99818      .   S
    Zn16   O163      2.15951      .   S
    Zn16   O125      1.99833      .   S
    Zn15   O162      2.15951      .   S
    Zn15   O124      1.99833      .   S
    O163   C75       1.25942      .   S
    O162   C74       1.25942      .   S
    O111   C43       1.25954      .   S
    O110   C42       1.25954      .   S
    Zn21   O174      1.93877      .   S
    Zn21   O140      1.89898      .   S
    Zn22   O175      1.93877      .   S
    Zn22   O141      1.89897      .   S
    Zn5    O122      1.93610  1_565   S
    Zn5    O88       1.89403      .   S
    Zn6    O123      1.93611  1_565   S
    Zn6    O89       1.89403      .   S
    C41    O109      1.29376      .   S
    C40    O108      1.29376      .   S
    C73    O161      1.29329      .   S
    C72    O160      1.29329      .   S
    C74    O164      1.29207      .   S
    C75    O165      1.29207      .   S
    C42    O112      1.29235      .   S
    C43    O113      1.29236      .   S
    O177   C81       1.27582      .   S
    O176   C80       1.27583      .   S
    O124   C48       1.27596      .   S
    O125   C49       1.27596      .   S
    O175   C79       1.29446      .   S
    O174   C78       1.29446      .   S
    O123   C47       1.29428      .   S
    O122   C46       1.29428      .   S
    O141   Zn19      1.98375  1_655   S
    O140   Zn20      1.98396      .   S
    O88    Zn3       1.98711      .   S
    O89    Zn4       1.98711      .   S
    O108   Zn3       1.94188      .   S
    O109   Zn4       1.94188      .   S
    O160   Zn19      1.94549      .   S
    O161   Zn20      1.94551      .   S
    O164   Zn17      1.94983      .   S
    O165   Zn18      1.94983      .   S
    O112   Zn1       1.94874      .   S
    O113   Zn2       1.94873      .   S
    C80    O178      1.27252      .   S
    C81    O179      1.27252      .   S
    C49    O126      1.27269      .   S
    C48    O127      1.27284      .   S
    C79    O173      1.26676      .   S
    C78    O172      1.26676      .   S
    C47    O121      1.26705  1_545   S
    C46    O120      1.26705  1_545   S
    Zn3    O178      2.02737      .   S
    Zn3    O182      1.98181      .   S
    Zn4    O179      2.02737      .   S
    Zn4    O183      1.98181      .   S
    Zn19   O126      2.03029  1_455   S
    Zn19   O131      1.98218  1_455   S
    Zn20   O127      2.03029      .   S
    Zn20   O130      1.98224      .   S
    Zn17   O172      2.00565      .   S
    Zn17   O128      1.93665      .   S
    Zn18   O173      2.00564      .   S
    Zn18   O129      1.93665      .   S
    Zn2    O121      2.01667      .   S
    Zn2    O181      1.93688      .   S
    Zn1    O120      2.01667      .   S
    Zn1    O180      1.93687      .   S
    O129   C51       1.28277      .   S
    O128   C50       1.28276      .   S
    O180   C82       1.28331      .   S
    O181   C83       1.28329      .   S
    O182   C82       1.28250      .   S
    O183   C83       1.28250      .   S
    O131   C51       1.28252      .   S
    O130   C50       1.28251      .   S
    O88    Zn31      2.04759      .   S
    O88    Zn1       2.00255      .   S
    O89    Zn0       2.04759      .   S
    O89    Zn2       2.00257      .   S
    O114   Zn7       2.04924      .   S
    O114   Zn9       2.00170      .   S
    O115   Zn8       2.04923      .   S
    O115   Zn10      2.00172      .   S
    O140   Zn15      2.05156      .   S
    O140   Zn17      2.00337      .   S
    O141   Zn16      2.05156      .   S
    O141   Zn18      2.00337      .   S
    O166   Zn23      2.04395      .   S
    O166   Zn25      2.00297      .   S
    O167   Zn24      2.04395      .   S
    O167   Zn26      2.00297      .   S
    C32    Og184     0.49605      .   S
    C33    Og185     0.49605      .   S
    C34    Og186     0.49747      .   S
    C35    Og187     0.49747      .   S
    C36    Og188     0.50012      .   S
    C37    Og189     0.50012      .   S
    C38    Og190     0.49443      .   S
    C39    Og191     0.49443      .   S
    C40    Og192     0.49944      .   S
    C41    Og193     0.49944      .   S
    C42    Og194     0.49870      .   S
    C43    Og195     0.49861      .   S
    C44    Og196     0.49106      .   S
    C45    Og197     0.49106      .   S
    C46    Og198     0.49789      .   S
    C47    Og199     0.49789      .   S
    C48    Og200     0.50059      .   S
    C49    Og201     0.50059      .   S
    C50    Og202     0.49463      .   S
    C51    Og203     0.49462      .   S
    C60    Og204     0.49970      .   S
    C61    Og205     0.49970      .   S
    C62    Og206     0.49889      .   S
    C63    Og207     0.49868      .   S
    C64    Og208     0.49634      .   S
    C65    Og209     0.49634      .   S
    C66    Og210     0.49810      .   S
    C67    Og211     0.49810      .   S
    C68    Og212     0.50061      .   S
    C69    Og213     0.50061      .   S
    C70    Og214     0.49456      .   S
    C71    Og215     0.49456      .   S
    C72    Og216     0.49979      .   S
    C73    Og217     0.49979      .   S
    C74    Og218     0.49881      .   S
    C75    Og219     0.49881      .   S
    C76    Og220     0.49620      .   S
    C77    Og221     0.49620      .   S
    C78    Og222     0.49785      .   S
    C79    Og223     0.49785      .   S
    C80    Og224     0.50022      .   S
    C81    Og225     0.50022      .   S
    C82    Og226     0.49456      .   S
    C83    Og227     0.49456      .   S
    C84    Og228     0.49961      .   S
    C85    Og229     0.49962      .   S
    C86    Og230     0.49905      .   S
    C87    Og231     0.49905      .   S
