# CIF file generated by openbabel 2.4.90, see http://openbabel.sf.net
data_I
_chemical_name_common ''
_cell_length_a 22.672
_cell_length_b 22.189
_cell_length_c 29.054
_cell_angle_alpha 90.096
_cell_angle_beta 90.041
_cell_angle_gamma 89.324
_space_group_name_H-M_alt 'P 1'
_space_group_name_Hall 'P 1'
loop_
    _symmetry_equiv_pos_as_xyz
    x,y,z
loop_
    _atom_site_label
    _atom_site_type_symbol
    _atom_site_fract_x
    _atom_site_fract_y
    _atom_site_fract_z
    _atom_site_occupancy
    N0      N    0.97521   0.88002   0.40952   1.000
    N1      N    0.05247   0.76064   0.53355   1.000
    N2      N    0.02445   0.11878   0.90980   1.000
    N3      N    0.80066   0.74055   0.03337   1.000
    N4      N    0.52445   0.11878   0.90981   1.000
    N5      N    0.55247   0.76064   0.53355   1.000
    N6      N    0.94656   0.23931   0.03343   1.000
    N7      N    0.77463   0.37890   0.40867   1.000
    N8      N    0.69731   0.25929   0.53321   1.000
    N9      N    0.27462   0.37890   0.40867   1.000
    N10     N    0.22499   0.62126   0.90883   1.000
    N11     N    0.30066   0.74055   0.03337   1.000
    N12     N    0.44657   0.23930   0.03344   1.000
    N13     N    0.72500   0.62126   0.90884   1.000
    N14     N    0.19730   0.25929   0.53321   1.000
    N15     N    0.47521   0.88002   0.40951   1.000
    Zr16    Zr   0.17791   0.11960   0.22167   1.000
    O17     O    0.18745   0.16317   0.33543   1.000
    O18     O    0.29055   0.15730   0.16329   1.000
    O19     O    0.10427   0.01564   0.28017   1.000
    O20     O    0.08156   0.15972   0.16519   1.000
    O21     O    0.21188   0.22557   0.27767   1.000
    O22     O    0.12753   0.11409   0.10744   1.000
    Zr23    Zr   0.67792   0.11960   0.22166   1.000
    O24     O    0.58156   0.15972   0.16518   1.000
    O25     O    0.68746   0.16317   0.33543   1.000
    O26     O    0.79056   0.15730   0.16329   1.000
    O27     O    0.62753   0.11409   0.10744   1.000
    O28     O    0.60427   0.01564   0.28017   1.000
    O29     O    0.71189   0.22557   0.27767   1.000
    Zr30    Zr   0.92657   0.37778   0.72169   1.000
    O31     O    0.83079   0.33818   0.66520   1.000
    O32     O    0.96121   0.27195   0.77812   1.000
    O33     O    0.87691   0.38309   0.60699   1.000
    O34     O    0.03974   0.34044   0.66327   1.000
    O35     O    0.85313   0.48310   0.77970   1.000
    O36     O    0.93604   0.33466   0.83554   1.000
    Zr37    Zr   0.42657   0.37778   0.72169   1.000
    O38     O    0.53974   0.34044   0.66326   1.000
    O39     O    0.33078   0.33818   0.66520   1.000
    O40     O    0.37690   0.38309   0.60699   1.000
    O41     O    0.43604   0.33466   0.83554   1.000
    O42     O    0.35313   0.48310   0.77970   1.000
    O43     O    0.46120   0.27195   0.77812   1.000
    Zr44    Zr   0.82224   0.87917   0.72212   1.000
    O45     O    0.70929   0.84203   0.66359   1.000
    O46     O    0.81196   0.83600   0.83576   1.000
    O47     O    0.87240   0.88447   0.60759   1.000
    O48     O    0.78803   0.77384   0.77800   1.000
    O49     O    0.89592   0.98297   0.78050   1.000
    O50     O    0.91832   0.83936   0.66561   1.000
    Zr51    Zr   0.07164   0.62172   0.22146   1.000
    O52     O    0.12202   0.61665   0.10691   1.000
    O53     O    0.16724   0.66147   0.16515   1.000
    O54     O    0.95829   0.65902   0.16307   1.000
    O55     O    0.06227   0.66509   0.33544   1.000
    O56     O    0.14570   0.51669   0.27949   1.000
    O57     O    0.03749   0.72726   0.27785   1.000
    Zr58    Zr   0.32223   0.87917   0.72212   1.000
    O59     O    0.31195   0.83600   0.83576   1.000
    O60     O    0.20928   0.84203   0.66359   1.000
    O61     O    0.37239   0.88447   0.60759   1.000
    O62     O    0.28802   0.77384   0.77800   1.000
    O63     O    0.41832   0.83936   0.66561   1.000
    O64     O    0.39591   0.98297   0.78050   1.000
    Zr65    Zr   0.57169   0.62172   0.22146   1.000
    O66     O    0.53752   0.72726   0.27785   1.000
    O67     O    0.64572   0.51669   0.27949   1.000
    O68     O    0.66727   0.66147   0.16515   1.000
    O69     O    0.56230   0.66509   0.33544   1.000
    O70     O    0.62205   0.61665   0.10691   1.000
    O71     O    0.45831   0.65902   0.16307   1.000
loop_
    _geom_bond_atom_site_label_1
    _geom_bond_atom_site_label_2
    _geom_bond_distance
    _geom_bond_site_symmetry_2
    _ccdc_geom_bond_type
    Zr16   O17       3.44954      .   S
    N14    O17       6.13074      .   S
    Zr16   O18       3.18735      .   S
    N12    O18       5.50002      .   S
    Zr16   O19       3.33257      .   S
    N0     O19       5.65683  1_665   S
    Zr16   O20       2.86562      .   S
    N6     O20       5.19791  1_655   S
    Zr16   O21       2.96615      .   S
    N9     O21       5.30550      .   S
    Zr16   O22       3.51158      .   S
    N2     O22       6.19845  1_556   S
    Zr23   O24       2.86569      .   S
    N12    O24       5.19749      .   S
    Zr23   O25       3.44957      .   S
    N8     O25       6.13077      .   S
    Zr23   O26       3.18728      .   S
    N6     O26       5.49992      .   S
    Zr23   O27       3.51153      .   S
    N4     O27       6.19837  1_556   S
    Zr23   O28       3.33258      .   S
    N15    O28       5.65680  1_565   S
    Zr23   O29       2.96617      .   S
    N7     O29       5.30551      .   S
    Zr30   O31       2.86645      .   S
    N8     O31       5.19772      .   S
    Zr30   O32       2.96430      .   S
    N2     O32       5.30697  1_455   S
    Zr30   O33       3.51851      .   S
    N7     O33       6.21043      .   S
    Zr30   O34       3.17837  1_655   S
    N14    O34       5.48877      .   S
    Zr30   O35       3.31256      .   S
    N13    O35       5.62871      .   S
    Zr30   O36       3.45081      .   S
    N6     O36       6.13335  1_554   S
    Zr37   O38       3.17847      .   S
    N8     O38       5.48885      .   S
    Zr37   O39       2.86648      .   S
    N14    O39       5.19774      .   S
    Zr37   O40       3.51851      .   S
    N9     O40       6.21042      .   S
    Zr37   O41       3.45088      .   S
    N12    O41       6.13354  1_554   S
    Zr37   O42       3.31255      .   S
    N10    O42       5.62863      .   S
    Zr37   O43       2.96432      .   S
    N4     O43       5.30706      .   S
    Zr44   O45       3.18862      .   S
    N5     O45       5.50334      .   S
    Zr44   O46       3.44815      .   S
    N3     O46       6.12958  1_554   S
    Zr44   O47       3.51976      .   S
    N0     O47       6.21083      .   S
    Zr44   O48       2.95921      .   S
    N13    O48       5.30285      .   S
    Zr44   O49       3.32349      .   S
    N2     O49       5.64275  1_445   S
    Zr44   O50       2.85925      .   S
    N1     O50       5.18584  1_455   S
    Zr51   O52       3.52085      .   S
    N10    O52       6.21337  1_556   S
    Zr51   O53       2.86482      .   S
    N11    O53       5.20119      .   S
    Zr51   O54       3.18066  1_455   S
    N3     O54       5.48577      .   S
    Zr51   O55       3.45283      .   S
    N1     O55       6.13387      .   S
    Zr51   O56       3.31817      .   S
    N9     O56       5.63825      .   S
    Zr51   O57       2.95188      .   S
    N0     O57       5.28851  1_655   S
    Zr58   O59       3.44815      .   S
    N11    O59       6.12957  1_554   S
    Zr58   O60       3.18861      .   S
    N1     O60       5.50332      .   S
    Zr58   O61       3.51984      .   S
    N15    O61       6.21105      .   S
    Zr58   O62       2.95918      .   S
    N10    O62       5.30275      .   S
    Zr58   O63       2.85933      .   S
    N5     O63       5.18593      .   S
    Zr58   O64       3.32352      .   S
    N4     O64       5.64287  1_545   S
    Zr65   O66       2.95198      .   S
    N15    O66       5.28854      .   S
    Zr65   O67       3.31791      .   S
    N7     O67       5.63797      .   S
    Zr65   O68       2.86443      .   S
    N3     O68       5.20089      .   S
    Zr65   O69       3.45286      .   S
    N5     O69       6.13389      .   S
    Zr65   O70       3.52063      .   S
    N13    O70       6.21305  1_556   S
    Zr65   O71       3.18119      .   S
    N11    O71       5.48620      .   S
