# CIF file generated by openbabel 2.4.90, see http://openbabel.sf.net
data_I
_chemical_name_common ''
_cell_length_a 22.672
_cell_length_b 22.189
_cell_length_c 29.054
_cell_angle_alpha 90.096
_cell_angle_beta 90.041
_cell_angle_gamma 89.324
_space_group_name_H-M_alt 'P 1'
_space_group_name_Hall 'P 1'
loop_
    _symmetry_equiv_pos_as_xyz
    x,y,z
loop_
    _atom_site_label
    _atom_site_type_symbol
    _atom_site_fract_x
    _atom_site_fract_y
    _atom_site_fract_z
    _atom_site_occupancy
    Zr0     Zr   0.30739   0.83088   0.67780   1.000
    Zr1     Zr   0.80740   0.83088   0.67780   1.000
    Zr2     Zr   0.37766   0.89592   0.76660   1.000
    Zr3     Zr   0.87767   0.89592   0.76660   1.000
    Zr4     Zr   0.24243   0.87738   0.76006   1.000
    Zr5     Zr   0.74244   0.87738   0.76006   1.000
    Zr6     Zr   0.34518   0.96369   0.68573   1.000
    Zr7     Zr   0.84519   0.96369   0.68573   1.000
    Zr8     Zr   0.19255   0.16807   0.17780   1.000
    Zr9     Zr   0.69255   0.16807   0.17780   1.000
    Zr10    Zr   0.12237   0.10192   0.26620   1.000
    Zr11    Zr   0.62237   0.10192   0.26620   1.000
    Zr12    Zr   0.25761   0.12257   0.25995   1.000
    Zr13    Zr   0.75761   0.12257   0.25995   1.000
    Zr14    Zr   0.15525   0.03419   0.18574   1.000
    Zr15    Zr   0.65526   0.03419   0.18574   1.000
    Zr16    Zr   0.44226   0.32860   0.67781   1.000
    Zr17    Zr   0.94227   0.32860   0.67781   1.000
    Zr18    Zr   0.36999   0.39566   0.76593   1.000
    Zr19    Zr   0.87000   0.39566   0.76593   1.000
    Zr20    Zr   0.00536   0.37466   0.76012   1.000
    Zr21    Zr   0.50537   0.37466   0.76012   1.000
    Zr22    Zr   0.40466   0.46307   0.68436   1.000
    Zr23    Zr   0.90467   0.46307   0.68436   1.000
    Zr24    Zr   0.05523   0.66971   0.17756   1.000
    Zr25    Zr   0.55524   0.66971   0.17756   1.000
    Zr26    Zr   0.12772   0.60417   0.26592   1.000
    Zr27    Zr   0.62772   0.60417   0.26592   1.000
    Zr28    Zr   0.49235   0.62498   0.25999   1.000
    Zr29    Zr   0.99236   0.62498   0.25999   1.000
    Zr30    Zr   0.09508   0.53680   0.18424   1.000
    Zr31    Zr   0.59508   0.53680   0.18424   1.000
    Zr32    Zr   0.35496   0.90197   0.59935   1.000
    Zr33    Zr   0.85496   0.90197   0.59935   1.000
    Zr34    Zr   0.10096   0.97018   0.25795   1.000
    Zr35    Zr   0.60097   0.97018   0.25795   1.000
    Zr36    Zr   0.02806   0.75644   0.24615   1.000
    Zr37    Zr   0.52807   0.75644   0.24615   1.000
    Zr38    Zr   0.05519   0.64142   0.34243   1.000
    Zr39    Zr   0.55520   0.64142   0.34243   1.000
    Zr40    Zr   0.16952   0.85577   0.68722   1.000
    Zr41    Zr   0.66953   0.85577   0.68722   1.000
    Zr42    Zr   0.44798   0.84246   0.69753   1.000
    Zr43    Zr   0.94799   0.84246   0.69753   1.000
    Zr44    Zr   0.14489   0.09576   0.09900   1.000
    Zr45    Zr   0.64490   0.09576   0.09900   1.000
    Zr46    Zr   0.40005   0.02772   0.75802   1.000
    Zr47    Zr   0.90006   0.02772   0.75802   1.000
    Zr48    Zr   0.47020   0.24268   0.74658   1.000
    Zr49    Zr   0.97020   0.24268   0.74658   1.000
    Zr50    Zr   0.44248   0.35857   0.84251   1.000
    Zr51    Zr   0.94248   0.35857   0.84251   1.000
    Zr52    Zr   0.33051   0.14416   0.18710   1.000
    Zr53    Zr   0.83052   0.14416   0.18710   1.000
    Zr54    Zr   0.05227   0.15619   0.19676   1.000
    Zr55    Zr   0.55227   0.15619   0.19670   1.000
    Zr56    Zr   0.39479   0.40039   0.59865   1.000
    Zr57    Zr   0.89480   0.40039   0.59865   1.000
    Zr58    Zr   0.15021   0.47169   0.25633   1.000
    Zr59    Zr   0.65022   0.47169   0.25633   1.000
    Zr60    Zr   0.22008   0.25467   0.24615   1.000
    Zr61    Zr   0.72008   0.25467   0.24615   1.000
    Zr62    Zr   0.19479   0.13916   0.34241   1.000
    Zr63    Zr   0.69479   0.13916   0.34241   1.000
    Zr64    Zr   0.07905   0.35325   0.68725   1.000
    Zr65    Zr   0.57906   0.35325   0.68725   1.000
    Zr66    Zr   0.30094   0.34209   0.69711   1.000
    Zr67    Zr   0.80094   0.34209   0.69711   1.000
    Zr68    Zr   0.10484   0.59938   0.09856   1.000
    Zr69    Zr   0.60484   0.59938   0.09856   1.000
    Zr70    Zr   0.34889   0.52819   0.75650   1.000
    Zr71    Zr   0.84889   0.52819   0.75650   1.000
    Zr72    Zr   0.27968   0.74515   0.74634   1.000
    Zr73    Zr   0.77969   0.74515   0.74634   1.000
    Zr74    Zr   0.30487   0.85992   0.84262   1.000
    Zr75    Zr   0.80487   0.85992   0.84262   1.000
    Zr76    Zr   0.41875   0.64557   0.18653   1.000
    Zr77    Zr   0.91876   0.64557   0.18653   1.000
    Zr78    Zr   0.19680   0.65771   0.19721   1.000
    Zr79    Zr   0.69680   0.65771   0.19721   1.000
    Zr80    Zr   0.31054   0.90274   0.72200   1.000
    Zr81    Zr   0.81055   0.90274   0.72200   1.000
    Zr82    Zr   0.32258   0.85929   0.61245   1.000
    Zr83    Zr   0.82258   0.85929   0.61245   1.000
    Zr84    Zr   0.36508   0.95103   0.62249   1.000
    Zr85    Zr   0.86509   0.95103   0.62249   1.000
    Zr86    Zr   0.10531   0.01621   0.28352   1.000
    Zr87    Zr   0.60532   0.01621   0.28352   1.000
    Zr88    Zr   0.11973   0.96600   0.21000   1.000
    Zr89    Zr   0.61974   0.96600   0.21000   1.000
    Zr90    Zr   0.05012   0.75207   0.20590   1.000
    Zr91    Zr   0.55013   0.75207   0.20590   1.000
    Zr92    Zr   0.50111   0.71507   0.26762   1.000
    Zr93    Zr   0.00000   0.71507   0.26762   1.000
    Zr94    Zr   0.10497   0.64579   0.32183   1.000
    Zr95    Zr   0.60498   0.64579   0.32183   1.000
    Zr96    Zr   0.00995   0.61432   0.32634   1.000
    Zr97    Zr   0.50995   0.61432   0.32634   1.000
    Zr98    Zr   0.21530   0.83872   0.66587   1.000
    Zr99    Zr   0.71530   0.83872   0.66587   1.000
    Zr100   Zr   0.16839   0.88302   0.72662   1.000
    Zr101   Zr   0.66840   0.88302   0.72662   1.000
    Zr102   Zr   0.40208   0.82060   0.68006   1.000
    Zr103   Zr   0.90209   0.82060   0.68006   1.000
    Zr104   Zr   0.45063   0.87239   0.73566   1.000
    Zr105   Zr   0.95063   0.87239   0.73566   1.000
    Zr106   Zr   0.18969   0.09610   0.22182   1.000
    Zr107   Zr   0.68970   0.09610   0.22182   1.000
    Zr108   Zr   0.17748   0.13825   0.11283   1.000
    Zr109   Zr   0.67749   0.13825   0.11283   1.000
    Zr110   Zr   0.13479   0.04662   0.12254   1.000
    Zr111   Zr   0.63480   0.04662   0.12254   1.000
    Zr112   Zr   0.39504   0.98201   0.78374   1.000
    Zr113   Zr   0.89505   0.98201   0.78374   1.000
    Zr114   Zr   0.38225   0.03138   0.71577   1.000
    Zr115   Zr   0.88226   0.03138   0.71577   1.000
    Zr116   Zr   0.44725   0.24696   0.70659   1.000
    Zr117   Zr   0.94725   0.24696   0.70659   1.000
    Zr118   Zr   0.99730   0.28421   0.76785   1.000
    Zr119   Zr   0.49731   0.28421   0.76785   1.000
    Zr120   Zr   0.39264   0.35416   0.82192   1.000
    Zr121   Zr   0.89265   0.35416   0.82192   1.000
    Zr122   Zr   0.48767   0.38564   0.82643   1.000
    Zr123   Zr   0.98767   0.38564   0.82643   1.000
    Zr124   Zr   0.28467   0.16122   0.16583   1.000
    Zr125   Zr   0.78468   0.16122   0.16583   1.000
    Zr126   Zr   0.33173   0.11709   0.22650   1.000
    Zr127   Zr   0.83174   0.11709   0.22650   1.000
    Zr128   Zr   0.09797   0.17916   0.17995   1.000
    Zr129   Zr   0.59798   0.17916   0.17995   1.000
    Zr130   Zr   0.04981   0.12485   0.23415   1.000
    Zr131   Zr   0.54982   0.12485   0.23415   1.000
    Zr132   Zr   0.43747   0.40101   0.72170   1.000
    Zr133   Zr   0.93748   0.40101   0.72170   1.000
    Zr134   Zr   0.42690   0.35702   0.61229   1.000
    Zr135   Zr   0.92690   0.35702   0.61229   1.000
    Zr136   Zr   0.38500   0.45028   0.62120   1.000
    Zr137   Zr   0.88501   0.45028   0.62120   1.000
    Zr138   Zr   0.14524   0.51768   0.28200   1.000
    Zr139   Zr   0.64525   0.51768   0.28200   1.000
    Zr140   Zr   0.13242   0.46828   0.21408   1.000
    Zr141   Zr   0.63242   0.46828   0.21408   1.000
    Zr142   Zr   0.19725   0.25024   0.20610   1.000
    Zr143   Zr   0.69726   0.25024   0.20610   1.000
    Zr144   Zr   0.24723   0.21289   0.26777   1.000
    Zr145   Zr   0.74724   0.21289   0.26777   1.000
    Zr146   Zr   0.14472   0.14354   0.32202   1.000
    Zr147   Zr   0.64473   0.14354   0.32202   1.000
    Zr148   Zr   0.24035   0.11167   0.32625   1.000
    Zr149   Zr   0.74035   0.11167   0.32625   1.000
    Zr150   Zr   0.03371   0.33601   0.66584   1.000
    Zr151   Zr   0.53372   0.33601   0.66584   1.000
    Zr152   Zr   0.07946   0.38020   0.72675   1.000
    Zr153   Zr   0.57947   0.38020   0.72675   1.000
    Zr154   Zr   0.34749   0.32031   0.67988   1.000
    Zr155   Zr   0.84750   0.32031   0.67988   1.000
    Zr156   Zr   0.29734   0.37224   0.73511   1.000
    Zr157   Zr   0.79735   0.37224   0.73511   1.000
    Zr158   Zr   0.06034   0.59809   0.22159   1.000
    Zr159   Zr   0.56035   0.59809   0.22159   1.000
    Zr160   Zr   0.07230   0.64251   0.11208   1.000
    Zr161   Zr   0.57230   0.64251   0.11208   1.000
    Zr162   Zr   0.11507   0.54974   0.12120   1.000
    Zr163   Zr   0.61508   0.54974   0.12120   1.000
    Zr164   Zr   0.35266   0.48202   0.78196   1.000
    Zr165   Zr   0.85267   0.48202   0.78196   1.000
    Zr166   Zr   0.36757   0.53169   0.71451   1.000
    Zr167   Zr   0.86758   0.53169   0.71451   1.000
    Zr168   Zr   0.30271   0.74926   0.70643   1.000
    Zr169   Zr   0.80271   0.74926   0.70643   1.000
    Zr170   Zr   0.25240   0.78704   0.76777   1.000
    Zr171   Zr   0.75241   0.78704   0.76777   1.000
    Zr172   Zr   0.35480   0.85423   0.82220   1.000
    Zr173   Zr   0.85481   0.85423   0.82220   1.000
    Zr174   Zr   0.25984   0.88826   0.82639   1.000
    Zr175   Zr   0.75985   0.88826   0.82639   1.000
    Zr176   Zr   0.46407   0.66154   0.16457   1.000
    Zr177   Zr   0.96408   0.66154   0.16457   1.000
    Zr178   Zr   0.41843   0.61963   0.22635   1.000
    Zr179   Zr   0.91844   0.61963   0.22635   1.000
    Zr180   Zr   0.15023   0.67956   0.18008   1.000
    Zr181   Zr   0.65024   0.67956   0.18008   1.000
    Zr182   Zr   0.20040   0.62748   0.23512   1.000
    Zr183   Zr   0.70040   0.62748   0.23512   1.000
    O184    O    0.58857   0.62094   0.10532   1.000
    O185    O    0.60996   0.57456   0.10988   1.000
    O186    O    0.08857   0.62094   0.10532   1.000
    O187    O    0.10995   0.57456   0.10988   1.000
    O188    O    0.66119   0.11700   0.10592   1.000
    O189    O    0.63985   0.07119   0.11077   1.000
    O190    O    0.16119   0.11700   0.10592   1.000
    O191    O    0.13984   0.07119   0.11077   1.000
    O192    O    0.06376   0.65611   0.14482   1.000
    O193    O    0.56377   0.65611   0.14482   1.000
    O194    O    0.68502   0.15316   0.14532   1.000
    O195    O    0.18501   0.15316   0.14532   1.000
    O196    O    0.10507   0.54327   0.15272   1.000
    O197    O    0.60508   0.54327   0.15272   1.000
    O198    O    0.64503   0.04041   0.15414   1.000
    O199    O    0.14502   0.04041   0.15414   1.000
    O200    O    0.50966   0.66562   0.17106   1.000
    O201    O    0.44141   0.65356   0.17555   1.000
    O202    O    0.00966   0.66562   0.17106   1.000
    O203    O    0.94142   0.65356   0.17555   1.000
    O204    O    0.73861   0.16464   0.17181   1.000
    O205    O    0.80760   0.15269   0.17646   1.000
    O206    O    0.23861   0.16464   0.17181   1.000
    O207    O    0.30759   0.15269   0.17646   1.000
    O208    O    0.60274   0.67463   0.17882   1.000
    O209    O    0.55268   0.71089   0.19173   1.000
    O210    O    0.10273   0.67463   0.17882   1.000
    O211    O    0.05268   0.71089   0.19173   1.000
    O212    O    0.64527   0.17361   0.17888   1.000
    O213    O    0.69491   0.20915   0.19195   1.000
    O214    O    0.14526   0.17361   0.17888   1.000
    O215    O    0.19490   0.20915   0.19195   1.000
    O216    O    0.57513   0.16768   0.18833   1.000
    O217    O    0.07512   0.16768   0.18835   1.000
    O218    O    0.17351   0.66863   0.18865   1.000
    O219    O    0.67352   0.66863   0.18865   1.000
    O220    O    0.11375   0.50254   0.19916   1.000
    O221    O    0.07771   0.56744   0.20292   1.000
    O222    O    0.61375   0.50254   0.19916   1.000
    O223    O    0.57772   0.56744   0.20292   1.000
    O224    O    0.63750   0.00010   0.19787   1.000
    O225    O    0.67248   0.06514   0.20378   1.000
    O226    O    0.13749   0.00010   0.19787   1.000
    O227    O    0.17247   0.06514   0.20378   1.000
    O228    O    0.41859   0.63260   0.20644   1.000
    O229    O    0.91860   0.63260   0.20644   1.000
    O230    O    0.33112   0.13063   0.20680   1.000
    O231    O    0.83113   0.13063   0.20680   1.000
    O232    O    0.55105   0.14052   0.21543   1.000
    O233    O    0.05104   0.14052   0.21546   1.000
    O234    O    0.69860   0.64259   0.21617   1.000
    O235    O    0.19860   0.64259   0.21617   1.000
    O236    O    0.03909   0.75425   0.22603   1.000
    O237    O    0.53910   0.75425   0.22603   1.000
    O238    O    0.70867   0.25246   0.22613   1.000
    O239    O    0.20866   0.25246   0.22613   1.000
    O240    O    0.61035   0.96809   0.23398   1.000
    O241    O    0.11034   0.96809   0.23398   1.000
    O242    O    0.14131   0.46999   0.23520   1.000
    O243    O    0.64132   0.46999   0.23520   1.000
    O244    O    0.52635   0.61153   0.24079   1.000
    O245    O    0.02635   0.61153   0.24079   1.000
    O246    O    0.22365   0.10934   0.24089   1.000
    O247    O    0.72366   0.10934   0.24089   1.000
    O248    O    0.45539   0.62231   0.24317   1.000
    O249    O    0.95539   0.62231   0.24317   1.000
    O250    O    0.29467   0.11983   0.24323   1.000
    O251    O    0.79468   0.11983   0.24323   1.000
    O252    O    0.08609   0.11339   0.25017   1.000
    O253    O    0.58610   0.11339   0.25017   1.000
    O254    O    0.66406   0.61583   0.25052   1.000
    O255    O    0.16406   0.61583   0.25052   1.000
    O256    O    0.01403   0.73575   0.25689   1.000
    O257    O    0.23365   0.23378   0.25696   1.000
    O258    O    0.73366   0.23378   0.25696   1.000
    O259    O    0.51459   0.73575   0.25689   1.000
    O260    O    0.14773   0.49469   0.26916   1.000
    O261    O    0.64773   0.49469   0.26916   1.000
    O262    O    0.10314   0.99319   0.27074   1.000
    O263    O    0.60314   0.99319   0.27074   1.000
    O264    O    0.75242   0.16773   0.26386   1.000
    O265    O    0.74898   0.11712   0.29310   1.000
    O266    O    0.25242   0.16773   0.26386   1.000
    O267    O    0.24898   0.11712   0.29310   1.000
    O268    O    0.49673   0.67002   0.26381   1.000
    O269    O    0.50115   0.61965   0.29317   1.000
    O270    O    0.99618   0.67002   0.26381   1.000
    O271    O    0.00115   0.61965   0.29317   1.000
    O272    O    0.13648   0.56093   0.27396   1.000
    O273    O    0.11635   0.62498   0.29387   1.000
    O274    O    0.63649   0.56093   0.27396   1.000
    O275    O    0.61635   0.62498   0.29387   1.000
    O276    O    0.61385   0.05907   0.27486   1.000
    O277    O    0.63355   0.12273   0.29411   1.000
    O278    O    0.11384   0.05907   0.27486   1.000
    O279    O    0.13354   0.12273   0.29411   1.000
    O280    O    0.58009   0.64360   0.33213   1.000
    O281    O    0.08008   0.64360   0.33213   1.000
    O282    O    0.66976   0.14135   0.33221   1.000
    O283    O    0.16975   0.14135   0.33221   1.000
    O284    O    0.71757   0.12541   0.33433   1.000
    O285    O    0.21757   0.12541   0.33433   1.000
    O286    O    0.53257   0.62787   0.33438   1.000
    O287    O    0.03257   0.62787   0.33438   1.000
    O288    O    0.41084   0.37870   0.60547   1.000
    O289    O    0.38990   0.42534   0.60993   1.000
    O290    O    0.91085   0.37870   0.60547   1.000
    O291    O    0.88990   0.42534   0.60993   1.000
    O292    O    0.33877   0.88063   0.60590   1.000
    O293    O    0.36002   0.92650   0.61092   1.000
    O294    O    0.83877   0.88063   0.60590   1.000
    O295    O    0.86003   0.92650   0.61092   1.000
    O296    O    0.43458   0.34281   0.64505   1.000
    O297    O    0.93459   0.34281   0.64505   1.000
    O298    O    0.31498   0.84509   0.64513   1.000
    O299    O    0.81499   0.84509   0.64513   1.000
    O300    O    0.39483   0.45668   0.65278   1.000
    O301    O    0.89484   0.45668   0.65278   1.000
    O302    O    0.35513   0.95736   0.65411   1.000
    O303    O    0.85514   0.95736   0.65411   1.000
    O304    O    0.98799   0.33231   0.67183   1.000
    O305    O    0.05638   0.34463   0.67654   1.000
    O306    O    0.48799   0.33231   0.67183   1.000
    O307    O    0.55639   0.34463   0.67654   1.000
    O308    O    0.76135   0.83480   0.67183   1.000
    O309    O    0.69241   0.84725   0.67654   1.000
    O310    O    0.26134   0.83480   0.67183   1.000
    O311    O    0.19241   0.84725   0.67654   1.000
    O312    O    0.85474   0.82574   0.67893   1.000
    O313    O    0.80506   0.79007   0.69212   1.000
    O314    O    0.35474   0.82574   0.67893   1.000
    O315    O    0.30505   0.79007   0.69212   1.000
    O316    O    0.89488   0.32445   0.67885   1.000
    O317    O    0.94476   0.28778   0.69220   1.000
    O318    O    0.39488   0.32445   0.67885   1.000
    O319    O    0.44475   0.28778   0.69220   1.000
    O320    O    0.82422   0.33120   0.68849   1.000
    O321    O    0.32421   0.33120   0.68849   1.000
    O322    O    0.92504   0.83153   0.68880   1.000
    O323    O    0.42503   0.83153   0.68880   1.000
    O324    O    0.38612   0.49738   0.69944   1.000
    O325    O    0.42107   0.43204   0.70303   1.000
    O326    O    0.88612   0.49738   0.69944   1.000
    O327    O    0.92107   0.43204   0.70303   1.000
    O328    O    0.36372   0.99754   0.70075   1.000
    O329    O    0.32786   0.93322   0.70386   1.000
    O330    O    0.86372   0.99754   0.70075   1.000
    O331    O    0.82787   0.93322   0.70386   1.000
    O332    O    0.66896   0.86940   0.70692   1.000
    O333    O    0.16896   0.86940   0.70692   1.000
    O334    O    0.57926   0.36672   0.70700   1.000
    O335    O    0.07925   0.36672   0.70700   1.000
    O336    O    0.29914   0.35716   0.71611   1.000
    O337    O    0.79914   0.35716   0.71611   1.000
    O338    O    0.44930   0.85742   0.71659   1.000
    O339    O    0.94931   0.85743   0.71659   1.000
    O340    O    0.79120   0.74721   0.72639   1.000
    O341    O    0.29119   0.74721   0.72639   1.000
    O342    O    0.45872   0.24482   0.72659   1.000
    O343    O    0.95873   0.24482   0.72659   1.000
    O344    O    0.85823   0.52994   0.73551   1.000
    O345    O    0.35823   0.52994   0.73551   1.000
    O346    O    0.89116   0.02955   0.73690   1.000
    O347    O    0.39115   0.02955   0.73690   1.000
    O348    O    0.97142   0.38784   0.74091   1.000
    O349    O    0.47142   0.38784   0.74091   1.000
    O350    O    0.27649   0.89006   0.74103   1.000
    O351    O    0.77649   0.89006   0.74103   1.000
    O352    O    0.20541   0.88020   0.74334   1.000
    O353    O    0.70542   0.88020   0.74334   1.000
    O354    O    0.04241   0.37743   0.74344   1.000
    O355    O    0.54242   0.37743   0.74344   1.000
    O356    O    0.33367   0.38395   0.75052   1.000
    O357    O    0.83367   0.38395   0.75052   1.000
    O358    O    0.41414   0.88415   0.75113   1.000
    O359    O    0.91415   0.88415   0.75113   1.000
    O360    O    0.26604   0.76610   0.75706   1.000
    O361    O    0.76605   0.76610   0.75706   1.000
    O362    O    0.98375   0.26344   0.75721   1.000
    O363    O    0.48375   0.26344   0.75721   1.000
    O364    O    0.85078   0.50511   0.76923   1.000
    O365    O    0.35077   0.50511   0.76923   1.000
    O366    O    0.89755   0.00487   0.77088   1.000
    O367    O    0.39754   0.00487   0.77088   1.000
    O368    O    0.24742   0.83221   0.76392   1.000
    O369    O    0.25114   0.88282   0.79323   1.000
    O370    O    0.74742   0.83221   0.76392   1.000
    O371    O    0.75115   0.88282   0.79323   1.000
    O372    O    0.00133   0.32944   0.76399   1.000
    O373    O    0.99652   0.38015   0.79328   1.000
    O374    O    0.50134   0.32944   0.76399   1.000
    O375    O    0.49652   0.38015   0.79328   1.000
    O376    O    0.36133   0.43884   0.77395   1.000
    O377    O    0.38132   0.37491   0.79392   1.000
    O378    O    0.86133   0.43884   0.77395   1.000
    O379    O    0.88132   0.37491   0.79392   1.000
    O380    O    0.88636   0.93897   0.77517   1.000
    O381    O    0.86624   0.87507   0.79440   1.000
    O382    O    0.38635   0.93897   0.77517   1.000
    O383    O    0.36623   0.87507   0.79440   1.000
    O384    O    0.91756   0.35636   0.83222   1.000
    O385    O    0.41756   0.35636   0.83222   1.000
    O386    O    0.32983   0.85707   0.83241   1.000
    O387    O    0.82984   0.85707   0.83241   1.000
    O388    O    0.28236   0.87409   0.83451   1.000
    O389    O    0.78236   0.87409   0.83451   1.000
    O390    O    0.96508   0.37210   0.83447   1.000
    O391    O    0.46507   0.37210   0.83447   1.000
    O392    O    0.30897   0.86681   0.69990   1.000
    O393    O    0.34410   0.89933   0.74430   1.000
    O394    O    0.80897   0.86681   0.69990   1.000
    O395    O    0.84411   0.89933   0.74430   1.000
    O396    O    0.19112   0.13208   0.19981   1.000
    O397    O    0.15603   0.09901   0.24401   1.000
    O398    O    0.69113   0.13208   0.19981   1.000
    O399    O    0.65604   0.09901   0.24401   1.000
    O400    O    0.43987   0.36481   0.69976   1.000
    O401    O    0.40373   0.39834   0.74382   1.000
    O402    O    0.93987   0.36481   0.69976   1.000
    O403    O    0.90374   0.39834   0.74382   1.000
    O404    O    0.05779   0.63390   0.19958   1.000
    O405    O    0.09403   0.60113   0.24375   1.000
    O406    O    0.55779   0.63390   0.19958   1.000
    O407    O    0.59404   0.60113   0.24375   1.000
    N408    N    0.97521   0.88002   0.40952   1.000
    O409    O    0.03062   0.91169   0.33868   1.000
    O410    O    0.00333   0.83280   0.33423   1.000
    O411    O    0.92256   0.88977   0.49307   1.000
    N412    N    0.05247   0.76064   0.53355   1.000
    O413    O    0.05289   0.70845   0.44941   1.000
    O414    O    0.01440   0.79956   0.60911   1.000
    O415    O    0.09633   0.80490   0.60507   1.000
    N416    N    0.02445   0.11878   0.90980   1.000
    O417    O    0.96960   0.08677   0.83887   1.000
    O418    O    0.07714   0.10859   0.99321   1.000
    O419    O    0.99584   0.16611   0.83456   1.000
    N420    N    0.80066   0.74055   0.03337   1.000
    O421    O    0.80168   0.79283   0.94940   1.000
    O422    O    0.84494   0.69631   0.10467   1.000
    O423    O    0.76285   0.70122   0.10884   1.000
    N424    N    0.52445   0.11878   0.90981   1.000
    O425    O    0.49584   0.16611   0.83456   1.000
    O426    O    0.46960   0.08677   0.83888   1.000
    O427    O    0.57714   0.10859   0.99321   1.000
    N428    N    0.55247   0.76064   0.53355   1.000
    O429    O    0.59633   0.80490   0.60507   1.000
    O430    O    0.51441   0.79956   0.60911   1.000
    O431    O    0.55290   0.70845   0.44941   1.000
    N432    N    0.94656   0.23931   0.03343   1.000
    O433    O    0.98520   0.19985   0.10871   1.000
    O434    O    0.90319   0.19500   0.10492   1.000
    O435    O    0.94551   0.29155   0.94939   1.000
    N436    N    0.77463   0.37890   0.40867   1.000
    O437    O    0.71975   0.41165   0.33752   1.000
    O438    O    0.82724   0.38841   0.49229   1.000
    O439    O    0.74586   0.33153   0.33368   1.000
    N440    N    0.69731   0.25929   0.53321   1.000
    O441    O    0.73500   0.29858   0.60872   1.000
    O442    O    0.69699   0.20675   0.44919   1.000
    O443    O    0.65292   0.30311   0.60484   1.000
    N444    N    0.27462   0.37890   0.40867   1.000
    O445    O    0.32724   0.38841   0.49229   1.000
    O446    O    0.21975   0.41165   0.33752   1.000
    O447    O    0.24586   0.33153   0.33368   1.000
    N448    N    0.22499   0.62126   0.90883   1.000
    O449    O    0.25382   0.66851   0.83388   1.000
    O450    O    0.17240   0.61159   0.99235   1.000
    O451    O    0.27969   0.58841   0.83771   1.000
    N452    N    0.30066   0.74055   0.03337   1.000
    O453    O    0.26284   0.70122   0.10884   1.000
    O454    O    0.30167   0.79283   0.94940   1.000
    O455    O    0.34493   0.69631   0.10467   1.000
    N456    N    0.44657   0.23930   0.03344   1.000
    O457    O    0.48521   0.19985   0.10870   1.000
    O458    O    0.44551   0.29154   0.94940   1.000
    O459    O    0.40319   0.19500   0.10492   1.000
    N460    N    0.72500   0.62126   0.90884   1.000
    O461    O    0.67240   0.61159   0.99235   1.000
    O462    O    0.75382   0.66851   0.83388   1.000
    O463    O    0.77969   0.58841   0.83771   1.000
    N464    N    0.19730   0.25929   0.53321   1.000
    O465    O    0.23499   0.29858   0.60872   1.000
    O466    O    0.19699   0.20675   0.44919   1.000
    O467    O    0.15291   0.30311   0.60484   1.000
    N468    N    0.47521   0.88002   0.40951   1.000
    O469    O    0.53062   0.91169   0.33868   1.000
    O470    O    0.50334   0.83280   0.33423   1.000
    O471    O    0.42256   0.88977   0.49306   1.000
loop_
    _geom_bond_atom_site_label_1
    _geom_bond_atom_site_label_2
    _geom_bond_distance
    _geom_bond_site_symmetry_2
    _ccdc_geom_bond_type
    Zr69   O184      0.63192      .   S
    Zr161  O184      0.63192      .   S
    Zr69   O185      0.65111      .   S
    Zr163  O185      0.65111      .   S
    Zr68   O186      0.63192      .   S
    Zr160  O186      0.63192      .   S
    Zr68   O187      0.65110      .   S
    Zr162  O187      0.65110      .   S
    Zr45   O188      0.63471      .   S
    Zr109  O188      0.63471      .   S
    Zr45   O189      0.65523      .   S
    Zr111  O189      0.65523      .   S
    Zr44   O190      0.63471      .   S
    Zr108  O190      0.63471      .   S
    Zr44   O191      0.65523      .   S
    Zr110  O191      0.65523      .   S
    Zr160  O192      1.01548      .   S
    Zr24   O192      1.01548      .   S
    Zr161  O193      1.01548      .   S
    Zr25   O193      1.01548      .   S
    Zr109  O194      1.01460      .   S
    Zr9    O194      1.01460      .   S
    Zr108  O195      1.01460      .   S
    Zr8    O195      1.01460      .   S
    Zr162  O196      0.95506      .   S
    Zr30   O196      0.95506      .   S
    Zr163  O197      0.95507      .   S
    Zr31   O197      0.95507      .   S
    Zr111  O198      0.95661      .   S
    Zr15   O198      0.95661      .   S
    Zr110  O199      0.95661      .   S
    Zr14   O199      0.95661      .   S
    Zr176  O200      1.05530      .   S
    Zr25   O200      1.05530      .   S
    Zr176  O201      0.63220      .   S
    Zr76   O201      0.63220      .   S
    Zr177  O202      1.05514  1_655   S
    Zr24   O202      1.05514      .   S
    Zr177  O203      0.63220      .   S
    Zr77   O203      0.63220      .   S
    Zr125  O204      1.06062      .   S
    Zr9    O204      1.06062      .   S
    Zr125  O205      0.63167      .   S
    Zr53   O205      0.63167      .   S
    Zr124  O206      1.06063      .   S
    Zr8    O206      1.06063      .   S
    Zr124  O207      0.63166      .   S
    Zr52   O207      0.63166      .   S
    Zr25   O208      1.08430      .   S
    Zr181  O208      1.08430      .   S
    Zr25   O209      1.00267      .   S
    Zr91   O209      1.00267      .   S
    Zr24   O210      1.08430      .   S
    Zr180  O210      1.08430      .   S
    Zr24   O211      1.00266      .   S
    Zr90   O211      1.00266      .   S
    Zr9    O212      1.07817      .   S
    Zr129  O212      1.07817      .   S
    Zr9    O213      1.00141      .   S
    Zr143  O213      1.00141      .   S
    Zr8    O214      1.07816      .   S
    Zr128  O214      1.07816      .   S
    Zr8    O215      1.00141      .   S
    Zr142  O215      1.00141      .   S
    Zr129  O216      0.62937      .   S
    Zr55   O216      0.62937      .   S
    Zr128  O217      0.62971      .   S
    Zr54   O217      0.62971      .   S
    Zr180  O218      0.62956      .   S
    Zr78   O218      0.62956      .   S
    Zr181  O219      0.62956      .   S
    Zr79   O219      0.62956      .   S
    Zr30   O220      0.96859      .   S
    Zr140  O220      0.96859      .   S
    Zr30   O221      0.95104      .   S
    Zr158  O221      0.95104      .   S
    Zr31   O222      0.96859      .   S
    Zr141  O222      0.96859      .   S
    Zr31   O223      0.95104      .   S
    Zr159  O223      0.95104      .   S
    Zr15   O224      0.93110      .   S
    Zr89   O224      0.93110  1_565   S
    Zr15   O225      0.95067      .   S
    Zr107  O225      0.95067      .   S
    Zr14   O226      0.93110      .   S
    Zr88   O226      0.93110  1_565   S
    Zr14   O227      0.95066      .   S
    Zr106  O227      0.95066      .   S
    Zr76   O228      0.64654      .   S
    Zr178  O228      0.64654      .   S
    Zr77   O229      0.64654      .   S
    Zr179  O229      0.64654      .   S
    Zr52   O230      0.64690      .   S
    Zr126  O230      0.64690      .   S
    Zr53   O231      0.64690      .   S
    Zr127  O231      0.64690      .   S
    Zr55   O232      0.64693      .   S
    Zr131  O232      0.64693      .   S
    Zr54   O233      0.64621      .   S
    Zr130  O233      0.64621      .   S
    Zr79   O234      0.64626      .   S
    Zr183  O234      0.64626      .   S
    Zr78   O235      0.64626      .   S
    Zr182  O235      0.64626      .   S
    Zr90   O236      0.63766      .   S
    Zr36   O236      0.63766      .   S
    Zr91   O237      0.63765      .   S
    Zr37   O237      0.63765      .   S
    Zr143  O238      0.63863      .   S
    Zr61   O238      0.63863      .   S
    Zr142  O239      0.63863      .   S
    Zr60   O239      0.63863      .   S
    Zr89   O240      0.72971      .   S
    Zr35   O240      0.72971      .   S
    Zr88   O241      0.72971      .   S
    Zr34   O241      0.72971      .   S
    Zr140  O242      0.64712      .   S
    Zr58   O242      0.64712      .   S
    Zr141  O243      0.64712      .   S
    Zr59   O243      0.64712      .   S
    Zr159  O244      0.99451      .   S
    Zr28   O244      0.99451      .   S
    Zr158  O245      0.99440      .   S
    Zr29   O245      0.99440  1_655   S
    Zr106  O246      0.99496      .   S
    Zr12   O246      0.99496      .   S
    Zr107  O247      0.99495      .   S
    Zr13   O247      0.99495      .   S
    Zr178  O248      0.97211      .   S
    Zr28   O248      0.97211      .   S
    Zr179  O249      0.97211      .   S
    Zr29   O249      0.97211      .   S
    Zr126  O250      0.97223      .   S
    Zr12   O250      0.97223      .   S
    Zr127  O251      0.97223      .   S
    Zr13   O251      0.97223      .   S
    Zr130  O252      0.97618      .   S
    Zr10   O252      0.97618      .   S
    Zr131  O253      0.97618      .   S
    Zr11   O253      0.97618      .   S
    Zr183  O254      0.97561      .   S
    Zr27   O254      0.97561      .   S
    Zr182  O255      0.97561      .   S
    Zr26   O255      0.97561      .   S
    Zr36   O256      0.64276      .   S
    Zr93   O256      0.64276      .   S
    Zr60   O257      0.63657      .   S
    Zr144  O257      0.63657      .   S
    Zr61   O258      0.63658      .   S
    Zr145  O258      0.63658      .   S
    Zr37   O259      0.63659      .   S
    Zr92   O259      0.63659      .   S
    Zr58   O260      0.63346      .   S
    Zr138  O260      0.63346      .   S
    Zr59   O261      0.63346      .   S
    Zr139  O261      0.63346      .   S
    Zr34   O262      0.63342      .   S
    Zr86   O262      0.63342  1_545   S
    Zr35   O263      0.63342      .   S
    Zr87   O263      0.63342  1_545   S
    Zr13   O264      1.01379      .   S
    Zr145  O264      1.01379      .   S
    Zr13   O265      0.99084      .   S
    Zr149  O265      0.99084      .   S
    Zr12   O266      1.01379      .   S
    Zr144  O266      1.01379      .   S
    Zr12   O267      0.99084      .   S
    Zr148  O267      0.99084      .   S
    Zr28   O268      1.01150      .   S
    Zr92   O268      1.01150      .   S
    Zr28   O269      0.99115      .   S
    Zr97   O269      0.99115      .   S
    Zr29   O270      1.01020      .   S
    Zr93   O270      1.01020  1_455   S
    Zr29   O271      0.99112  1_655   S
    Zr96   O271      0.99112      .   S
    Zr26   O272      1.00547      .   S
    Zr138  O272      1.00547      .   S
    Zr26   O273      0.96724      .   S
    Zr94   O273      0.96724      .   S
    Zr27   O274      1.00547      .   S
    Zr139  O274      1.00547      .   S
    Zr27   O275      0.96724      .   S
    Zr95   O275      0.96724      .   S
    Zr11   O276      1.00501      .   S
    Zr87   O276      1.00501      .   S
    Zr11   O277      0.96756      .   S
    Zr147  O277      0.96756      .   S
    Zr10   O278      1.00501      .   S
    Zr86   O278      1.00501      .   S
    Zr10   O279      0.96756      .   S
    Zr146  O279      0.96756      .   S
    Zr95   O280      0.64135      .   S
    Zr39   O280      0.64135      .   S
    Zr94   O281      0.64136      .   S
    Zr38   O281      0.64136      .   S
    Zr147  O282      0.64136      .   S
    Zr63   O282      0.64136      .   S
    Zr146  O283      0.64136      .   S
    Zr62   O283      0.64136      .   S
    Zr149  O284      0.64118      .   S
    Zr63   O284      0.64118      .   S
    Zr148  O285      0.64118      .   S
    Zr62   O285      0.64118      .   S
    Zr97   O286      0.64129      .   S
    Zr39   O286      0.64129      .   S
    Zr96   O287      0.64128      .   S
    Zr38   O287      0.64128      .   S
    Zr56   O288      0.63196      .   S
    Zr134  O288      0.63196      .   S
    Zr56   O289      0.65115      .   S
    Zr136  O289      0.65115      .   S
    Zr57   O290      0.63196      .   S
    Zr135  O290      0.63196      .   S
    Zr57   O291      0.65115      .   S
    Zr137  O291      0.65115      .   S
    Zr32   O292      0.63218      .   S
    Zr82   O292      0.63218      .   S
    Zr32   O293      0.65057      .   S
    Zr84   O293      0.65057      .   S
    Zr33   O294      0.63217      .   S
    Zr83   O294      0.63217      .   S
    Zr33   O295      0.65057      .   S
    Zr85   O295      0.65057      .   S
    Zr134  O296      1.01742      .   S
    Zr16   O296      1.01742      .   S
    Zr135  O297      1.01742      .   S
    Zr17   O297      1.01742      .   S
    Zr82   O298      1.01625      .   S
    Zr0    O298      1.01625      .   S
    Zr83   O299      1.01625      .   S
    Zr1    O299      1.01625      .   S
    Zr136  O300      0.95482      .   S
    Zr22   O300      0.95482      .   S
    Zr137  O301      0.95482      .   S
    Zr23   O301      0.95482      .   S
    Zr84   O302      0.95589      .   S
    Zr6    O302      0.95589      .   S
    Zr85   O303      0.95589      .   S
    Zr7    O303      0.95589      .   S
    Zr150  O304      1.05542  1_455   S
    Zr17   O304      1.05542      .   S
    Zr150  O305      0.63192      .   S
    Zr64   O305      0.63192      .   S
    Zr151  O306      1.05557      .   S
    Zr16   O306      1.05557      .   S
    Zr151  O307      0.63192      .   S
    Zr65   O307      0.63192      .   S
    Zr99   O308      1.06077      .   S
    Zr1    O308      1.06077      .   S
    Zr99   O309      0.63162      .   S
    Zr41   O309      0.63162      .   S
    Zr98   O310      1.06076      .   S
    Zr0    O310      1.06076      .   S
    Zr98   O311      0.63163      .   S
    Zr40   O311      0.63163      .   S
    Zr1    O312      1.07856      .   S
    Zr103  O312      1.07856      .   S
    Zr1    O313      0.99909      .   S
    Zr169  O313      0.99909      .   S
    Zr0    O314      1.07857      .   S
    Zr102  O314      1.07857      .   S
    Zr0    O315      0.99909      .   S
    Zr168  O315      0.99909      .   S
    Zr17   O316      1.07976      .   S
    Zr155  O316      1.07976      .   S
    Zr17   O317      0.99917      .   S
    Zr117  O317      0.99917      .   S
    Zr16   O318      1.07976      .   S
    Zr154  O318      1.07976      .   S
    Zr16   O319      0.99917      .   S
    Zr116  O319      0.99917      .   S
    Zr155  O320      0.62971      .   S
    Zr67   O320      0.62971      .   S
    Zr154  O321      0.62971      .   S
    Zr66   O321      0.62971      .   S
    Zr103  O322      0.62977      .   S
    Zr43   O322      0.62977      .   S
    Zr102  O323      0.62977      .   S
    Zr42   O323      0.62977      .   S
    Zr22   O324      0.96939      .   S
    Zr166  O324      0.96939      .   S
    Zr22   O325      0.94949      .   S
    Zr132  O325      0.94949      .   S
    Zr23   O326      0.96939      .   S
    Zr167  O326      0.96939      .   S
    Zr23   O327      0.94948      .   S
    Zr133  O327      0.94948      .   S
    Zr6    O328      0.96805      .   S
    Zr114  O328      0.96805  1_545   S
    Zr6    O329      0.94701      .   S
    Zr80   O329      0.94701      .   S
    Zr7    O330      0.96806      .   S
    Zr115  O330      0.96806  1_545   S
    Zr7    O331      0.94701      .   S
    Zr81   O331      0.94701      .   S
    Zr41   O332      0.64688      .   S
    Zr101  O332      0.64688      .   S
    Zr40   O333      0.64688      .   S
    Zr100  O333      0.64688      .   S
    Zr65   O334      0.64664      .   S
    Zr153  O334      0.64664      .   S
    Zr64   O335      0.64664      .   S
    Zr152  O335      0.64664      .   S
    Zr66   O336      0.64603      .   S
    Zr156  O336      0.64603      .   S
    Zr67   O337      0.64604      .   S
    Zr157  O337      0.64604      .   S
    Zr42   O338      0.64617      .   S
    Zr104  O338      0.64617      .   S
    Zr43   O339      0.64618      .   S
    Zr105  O339      0.64618      .   S
    Zr169  O340      0.63791      .   S
    Zr73   O340      0.63791      .   S
    Zr168  O341      0.63791      .   S
    Zr72   O341      0.63791      .   S
    Zr116  O342      0.63798      .   S
    Zr48   O342      0.63798      .   S
    Zr117  O343      0.63798      .   S
    Zr49   O343      0.63798      .   S
    Zr167  O344      0.64723      .   S
    Zr71   O344      0.64723      .   S
    Zr166  O345      0.64723      .   S
    Zr70   O345      0.64723      .   S
    Zr115  O346      0.64714      .   S
    Zr47   O346      0.64714      .   S
    Zr114  O347      0.64714      .   S
    Zr46   O347      0.64714      .   S
    Zr133  O348      0.99187      .   S
    Zr20   O348      0.99187  1_455   S
    Zr132  O349      0.99198      .   S
    Zr21   O349      0.99198      .   S
    Zr80   O350      0.99356      .   S
    Zr4    O350      0.99356      .   S
    Zr81   O351      0.99356      .   S
    Zr5    O351      0.99356      .   S
    Zr100  O352      0.97094      .   S
    Zr4    O352      0.97094      .   S
    Zr101  O353      0.97094      .   S
    Zr5    O353      0.97094      .   S
    Zr152  O354      0.97274      .   S
    Zr20   O354      0.97274      .   S
    Zr153  O355      0.97275      .   S
    Zr21   O355      0.97275      .   S
    Zr156  O356      0.97491      .   S
    Zr18   O356      0.97491      .   S
    Zr157  O357      0.97491      .   S
    Zr19   O357      0.97491      .   S
    Zr104  O358      0.97437      .   S
    Zr2    O358      0.97437      .   S
    Zr105  O359      0.97437      .   S
    Zr3    O359      0.97437      .   S
    Zr72   O360      0.63626      .   S
    Zr170  O360      0.63626      .   S
    Zr73   O361      0.63626      .   S
    Zr171  O361      0.63626      .   S
    Zr49   O362      0.63635      .   S
    Zr118  O362      0.63635      .   S
    Zr48   O363      0.63642      .   S
    Zr119  O363      0.63642      .   S
    Zr71   O364      0.63338      .   S
    Zr165  O364      0.63338      .   S
    Zr70   O365      0.63338      .   S
    Zr164  O365      0.63338      .   S
    Zr47   O366      0.63352      .   S
    Zr113  O366      0.63352  1_565   S
    Zr46   O367      0.63352      .   S
    Zr112  O367      0.63352  1_565   S
    Zr4    O368      1.01368      .   S
    Zr170  O368      1.01368      .   S
    Zr4    O369      0.99090      .   S
    Zr174  O369      0.99090      .   S
    Zr5    O370      1.01369      .   S
    Zr171  O370      1.01369      .   S
    Zr5    O371      0.99091      .   S
    Zr175  O371      0.99091      .   S
    Zr20   O372      1.01514      .   S
    Zr118  O372      1.01514  1_655   S
    Zr20   O373      0.99109  1_455   S
    Zr123  O373      0.99109      .   S
    Zr21   O374      1.01514      .   S
    Zr119  O374      1.01514      .   S
    Zr21   O375      0.99112      .   S
    Zr122  O375      0.99112      .   S
    Zr18   O376      1.00282      .   S
    Zr164  O376      1.00282      .   S
    Zr18   O377      0.96833      .   S
    Zr120  O377      0.96833      .   S
    Zr19   O378      1.00282      .   S
    Zr165  O378      1.00282      .   S
    Zr19   O379      0.96833      .   S
    Zr121  O379      0.96833      .   S
    Zr3    O380      1.00833      .   S
    Zr113  O380      1.00833      .   S
    Zr3    O381      0.96844      .   S
    Zr173  O381      0.96844      .   S
    Zr2    O382      1.00833      .   S
    Zr112  O382      1.00833      .   S
    Zr2    O383      0.96844      .   S
    Zr172  O383      0.96844      .   S
    Zr121  O384      0.64138      .   S
    Zr51   O384      0.64138      .   S
    Zr120  O385      0.64138      .   S
    Zr50   O385      0.64138      .   S
    Zr172  O386      0.64165      .   S
    Zr74   O386      0.64165      .   S
    Zr173  O387      0.64164      .   S
    Zr75   O387      0.64164      .   S
    Zr174  O388      0.64125      .   S
    Zr74   O388      0.64125      .   S
    Zr175  O389      0.64125      .   S
    Zr75   O389      0.64125      .   S
    Zr123  O390      0.64126      .   S
    Zr51   O390      0.64126      .   S
    Zr122  O391      0.64126      .   S
    Zr50   O391      0.64126      .   S
    Zr80   O392      1.02380      .   S
    Zr0    O392      1.02380      .   S
    Zr80   O393      1.00128      .   S
    Zr2    O393      1.00128      .   S
    Zr81   O394      1.02380      .   S
    Zr1    O394      1.02380      .   S
    Zr81   O395      1.00128      .   S
    Zr3    O395      1.00128      .   S
    Zr106  O396      1.02462      .   S
    Zr8    O396      1.02462      .   S
    Zr106  O397      1.00085      .   S
    Zr10   O397      1.00085      .   S
    Zr107  O398      1.02461      .   S
    Zr9    O398      1.02461      .   S
    Zr107  O399      1.00086      .   S
    Zr11   O399      1.00086      .   S
    Zr132  O400      1.02578      .   S
    Zr16   O400      1.02578      .   S
    Zr132  O401      1.00169      .   S
    Zr18   O401      1.00169      .   S
    Zr133  O402      1.02578      .   S
    Zr17   O402      1.02578      .   S
    Zr133  O403      1.00169      .   S
    Zr19   O403      1.00169      .   S
    Zr158  O404      1.02197      .   S
    Zr24   O404      1.02197      .   S
    Zr158  O405      1.00149      .   S
    Zr26   O405      1.00149      .   S
    Zr159  O406      1.02197      .   S
    Zr25   O406      1.02197      .   S
    Zr159  O407      1.00149      .   S
    Zr27   O407      1.00149      .   S
    N408   O409      2.51723  1_655   S
    Zr34   O409      3.12947      .   S
    N408   O410      2.50340  1_655   S
    Zr36   O410      3.11448      .   S
    N408   O411      2.71311      .   S
    Zr33   O411      3.45709      .   S
    N412   O413      2.70308      .   S
    Zr38   O413      3.44380      .   S
    N412   O414      2.50780      .   S
    Zr43   O414      3.12034  1_655   S
    N412   O415      2.50683      .   S
    Zr40   O415      3.12327      .   S
    N416   O417      2.51198  1_455   S
    Zr47   O417      3.12306      .   S
    N416   O418      2.70952      .   S
    Zr44   O418      3.44592  1_554   S
    N416   O419      2.50852  1_455   S
    Zr49   O419      3.12196      .   S
    N420   O421      2.70358  1_554   S
    Zr75   O421      3.44435      .   S
    N420   O422      2.49844      .   S
    Zr77   O422      3.11209      .   S
    N420   O423      2.51625      .   S
    Zr79   O423      3.13271      .   S
    N424   O425      2.50859      .   S
    Zr48   O425      3.12202      .   S
    N424   O426      2.51207      .   S
    Zr46   O426      3.12316      .   S
    N424   O427      2.70950      .   S
    Zr45   O427      3.44590  1_554   S
    N428   O429      2.50684      .   S
    Zr41   O429      3.12328      .   S
    N428   O430      2.50781      .   S
    Zr42   O430      3.12043      .   S
    N428   O431      2.70308      .   S
    Zr39   O431      3.44380      .   S
    N432   O433      2.51051      .   S
    Zr54   O433      3.12461  1_455   S
    N432   O434      2.50586      .   S
    Zr53   O434      3.12198      .   S
    N432   O435      2.70460  1_554   S
    Zr51   O435      3.44568      .   S
    N436   O437      2.51577      .   S
    Zr59   O437      3.12749      .   S
    N436   O438      2.71472      .   S
    Zr57   O438      3.45914      .   S
    N436   O439      2.50672      .   S
    Zr61   O439      3.11845      .   S
    N440   O441      2.51244      .   S
    Zr67   O441      3.12770      .   S
    N440   O442      2.70338      .   S
    Zr63   O442      3.44418      .   S
    N440   O443      2.50263      .   S
    Zr65   O443      3.11890      .   S
    N444   O445      2.71470      .   S
    Zr56   O445      3.45912      .   S
    N444   O446      2.51578      .   S
    Zr58   O446      3.12750      .   S
    N444   O447      2.50673      .   S
    Zr60   O447      3.11846      .   S
    N448   O449      2.50891      .   S
    Zr72   O449      3.12159      .   S
    N448   O450      2.71436      .   S
    Zr68   O450      3.45856  1_554   S
    N448   O451      2.51326      .   S
    Zr70   O451      3.12389      .   S
    N452   O453      2.51626      .   S
    Zr78   O453      3.13272      .   S
    N452   O454      2.70358  1_554   S
    Zr74   O454      3.44435      .   S
    N452   O455      2.49844      .   S
    Zr76   O455      3.11208      .   S
    N456   O457      2.50997      .   S
    Zr55   O457      3.12344      .   S
    N456   O458      2.70471  1_554   S
    Zr50   O458      3.44581      .   S
    N456   O459      2.50584      .   S
    Zr52   O459      3.12199      .   S
    N460   O461      2.71428      .   S
    Zr69   O461      3.45848  1_554   S
    N460   O462      2.50899      .   S
    Zr73   O462      3.12167      .   S
    N460   O463      2.51334      .   S
    Zr71   O463      3.12396      .   S
    N464   O465      2.51244      .   S
    Zr66   O465      3.12770      .   S
    N464   O466      2.70339      .   S
    Zr62   O466      3.44419      .   S
    N464   O467      2.50263      .   S
    Zr64   O467      3.11890      .   S
    N468   O469      2.51717      .   S
    Zr35   O469      3.12941      .   S
    N468   O470      2.50331      .   S
    Zr37   O470      3.11439      .   S
    N468   O471      2.71325      .   S
    Zr32   O471      3.45723      .   S
