# CIF file generated by openbabel 2.4.90, see http://openbabel.sf.net
data_I
_chemical_name_common ''
_cell_length_a 22.672
_cell_length_b 22.189
_cell_length_c 29.054
_cell_angle_alpha 90.096
_cell_angle_beta 90.041
_cell_angle_gamma 89.324
_space_group_name_H-M_alt 'P 1'
_space_group_name_Hall 'P 1'
loop_
    _symmetry_equiv_pos_as_xyz
    x,y,z
loop_
    _atom_site_label
    _atom_site_type_symbol
    _atom_site_fract_x
    _atom_site_fract_y
    _atom_site_fract_z
    _atom_site_occupancy
    C0      C    0.30739   0.83088   0.67780   1.000
    C1      C    0.80740   0.83088   0.67780   1.000
    C2      C    0.37766   0.89592   0.76660   1.000
    C3      C    0.87767   0.89592   0.76660   1.000
    C4      C    0.24243   0.87738   0.76006   1.000
    C5      C    0.74244   0.87738   0.76006   1.000
    C6      C    0.34518   0.96369   0.68573   1.000
    C7      C    0.84519   0.96369   0.68573   1.000
    C8      C    0.19255   0.16807   0.17780   1.000
    C9      C    0.69255   0.16807   0.17780   1.000
    C10     C    0.12237   0.10192   0.26620   1.000
    C11     C    0.62237   0.10192   0.26620   1.000
    C12     C    0.25761   0.12257   0.25995   1.000
    C13     C    0.75761   0.12257   0.25995   1.000
    C14     C    0.15525   0.03419   0.18574   1.000
    C15     C    0.65526   0.03419   0.18574   1.000
    C16     C    0.44226   0.32860   0.67781   1.000
    C17     C    0.94227   0.32860   0.67781   1.000
    C18     C    0.36999   0.39566   0.76593   1.000
    C19     C    0.87000   0.39566   0.76593   1.000
    C20     C    0.00536   0.37466   0.76012   1.000
    C21     C    0.50537   0.37466   0.76012   1.000
    C22     C    0.40466   0.46307   0.68436   1.000
    C23     C    0.90467   0.46307   0.68436   1.000
    C24     C    0.05523   0.66971   0.17756   1.000
    C25     C    0.55524   0.66971   0.17756   1.000
    C26     C    0.12772   0.60417   0.26592   1.000
    C27     C    0.62772   0.60417   0.26592   1.000
    C28     C    0.49235   0.62498   0.25999   1.000
    C29     C    0.99236   0.62498   0.25999   1.000
    C30     C    0.09508   0.53680   0.18424   1.000
    C31     C    0.59508   0.53680   0.18424   1.000
    C32     C    0.42954   0.98187   0.56000   1.000
    C33     C    0.92955   0.98187   0.56019   1.000
    C34     C    0.48105   0.97210   0.48480   1.000
    C35     C    0.98106   0.97210   0.48480   1.000
    C36     C    0.39848   0.80032   0.46285   1.000
    C37     C    0.89848   0.80032   0.46285   1.000
    C38     C    0.34725   0.81068   0.53858   1.000
    C39     C    0.84725   0.81068   0.53858   1.000
    C40     C    0.05379   0.96270   0.34162   1.000
    C41     C    0.55379   0.96270   0.34162   1.000
    C42     C    0.08212   0.85977   0.21751   1.000
    C43     C    0.58212   0.85977   0.21751   1.000
    C44     C    0.48934   0.78076   0.33096   1.000
    C45     C    0.98935   0.78076   0.33096   1.000
    C46     C    0.13948   0.70576   0.38284   1.000
    C47     C    0.63948   0.70576   0.38284   1.000
    C48     C    0.13602   0.75713   0.45923   1.000
    C49     C    0.63602   0.75713   0.45923   1.000
    C50     C    0.45879   0.69372   0.47921   1.000
    C51     C    0.95880   0.69372   0.47921   1.000
    C52     C    0.46253   0.64344   0.40214   1.000
    C53     C    0.96253   0.64344   0.40214   1.000
    C54     C    0.14979   0.81221   0.60244   1.000
    C55     C    0.64980   0.81221   0.60244   1.000
    C56     C    0.06031   0.87009   0.72500   1.000
    C57     C    0.56032   0.87009   0.72500   1.000
    C58     C    0.46023   0.79743   0.61312   1.000
    C59     C    0.96024   0.79743   0.61312   1.000
    C60     C    0.07007   0.01619   0.05970   1.000
    C61     C    0.57007   0.01619   0.05977   1.000
    C62     C    0.01847   0.02679   0.98446   1.000
    C63     C    0.51848   0.02679   0.98446   1.000
    C64     C    0.10089   0.19887   0.96410   1.000
    C65     C    0.60090   0.19887   0.96410   1.000
    C66     C    0.15228   0.18764   0.03970   1.000
    C67     C    0.65229   0.18764   0.03970   1.000
    C68     C    0.44719   0.03612   0.84176   1.000
    C69     C    0.94719   0.03612   0.84176   1.000
    C70     C    0.41768   0.13831   0.71700   1.000
    C71     C    0.91769   0.13831   0.71700   1.000
    C72     C    0.00929   0.21893   0.83138   1.000
    C73     C    0.50930   0.21893   0.83138   1.000
    C74     C    0.35829   0.29456   0.88326   1.000
    C75     C    0.85829   0.29457   0.88326   1.000
    C76     C    0.36229   0.24339   0.95958   1.000
    C77     C    0.86229   0.24340   0.95958   1.000
    C78     C    0.03987   0.30635   0.97885   1.000
    C79     C    0.53988   0.30634   0.97885   1.000
    C80     C    0.03556   0.35647   0.90189   1.000
    C81     C    0.53556   0.35646   0.90189   1.000
    C82     C    0.34986   0.18823   0.10254   1.000
    C83     C    0.84987   0.18823   0.10254   1.000
    C84     C    0.44005   0.12883   0.22490   1.000
    C85     C    0.94005   0.12883   0.22490   1.000
    C86     C    0.03959   0.20202   0.11262   1.000
    C87     C    0.53959   0.20201   0.11262   1.000
    C88     C    0.32046   0.48159   0.55833   1.000
    C89     C    0.82046   0.48159   0.55833   1.000
    C90     C    0.26913   0.47172   0.48293   1.000
    C91     C    0.76914   0.47173   0.48293   1.000
    C92     C    0.35115   0.29726   0.46321   1.000
    C93     C    0.85116   0.29726   0.46321   1.000
    C94     C    0.40218   0.30771   0.53890   1.000
    C95     C    0.90219   0.30771   0.53894   1.000
    C96     C    0.19745   0.46323   0.34003   1.000
    C97     C    0.69746   0.46323   0.34003   1.000
    C98     C    0.16763   0.35999   0.21658   1.000
    C99     C    0.66763   0.35999   0.21658   1.000
    C100    C    0.25907   0.27863   0.33075   1.000
    C101    C    0.75908   0.27863   0.33075   1.000
    C102    C    0.10998   0.20472   0.38304   1.000
    C103    C    0.60999   0.20472   0.38300   1.000
    C104    C    0.11364   0.25664   0.45917   1.000
    C105    C    0.61364   0.25664   0.45917   1.000
    C106    C    0.29205   0.19180   0.47830   1.000
    C107    C    0.79205   0.19179   0.47830   1.000
    C108    C    0.28810   0.14101   0.40149   1.000
    C109    C    0.78810   0.14101   0.40149   1.000
    C110    C    0.09969   0.31011   0.60229   1.000
    C111    C    0.59970   0.31011   0.60229   1.000
    C112    C    0.18800   0.36848   0.72533   1.000
    C113    C    0.68800   0.36848   0.72533   1.000
    C114    C    0.28979   0.29723   0.61240   1.000
    C115    C    0.78979   0.29723   0.61240   1.000
    C116    C    0.17977   0.51861   0.05821   1.000
    C117    C    0.67977   0.51861   0.05821   1.000
    C118    C    0.23107   0.52880   0.98292   1.000
    C119    C    0.73107   0.52880   0.98292   1.000
    C120    C    0.14800   0.70275   0.96350   1.000
    C121    C    0.64801   0.70275   0.96350   1.000
    C122    C    0.09694   0.69195   0.03909   1.000
    C123    C    0.59695   0.69195   0.03909   1.000
    C124    C    0.30177   0.53703   0.84000   1.000
    C125    C    0.80178   0.53703   0.84019   1.000
    C126    C    0.33200   0.63980   0.71690   1.000
    C127    C    0.83200   0.63980   0.71690   1.000
    C128    C    0.24068   0.72176   0.83099   1.000
    C129    C    0.74069   0.72176   0.83099   1.000
    C130    C    0.38888   0.79418   0.88399   1.000
    C131    C    0.88889   0.79418   0.88399   1.000
    C132    C    0.38417   0.74294   0.96022   1.000
    C133    C    0.88418   0.74294   0.96022   1.000
    C134    C    0.20602   0.80920   0.97802   1.000
    C135    C    0.70603   0.80920   0.97802   1.000
    C136    C    0.21107   0.85942   0.90119   1.000
    C137    C    0.71108   0.85942   0.90119   1.000
    C138    C    0.39756   0.68909   0.10188   1.000
    C139    C    0.89757   0.68909   0.10188   1.000
    C140    C    0.30998   0.63075   0.22500   1.000
    C141    C    0.80998   0.63075   0.22500   1.000
    C142    C    0.20762   0.70308   0.11293   1.000
    C143    C    0.70763   0.70308   0.11293   1.000
    C144    C    0.35496   0.90197   0.59935   1.000
    C145    C    0.85496   0.90197   0.59935   1.000
    C146    C    0.38485   0.89707   0.55389   1.000
    C147    C    0.88485   0.89707   0.55389   1.000
    C148    C    0.42284   0.94242   0.53857   1.000
    C149    C    0.92285   0.94242   0.53857   1.000
    C150    C    0.45160   0.93690   0.49659   1.000
    C151    C    0.95160   0.93690   0.49659   1.000
    C152    C    0.44301   0.88565   0.46851   1.000
    C153    C    0.94301   0.88565   0.46851   1.000
    C154    C    0.40504   0.84000   0.48428   1.000
    C155    C    0.90505   0.84000   0.48428   1.000
    C156    C    0.37650   0.84576   0.52632   1.000
    C157    C    0.87651   0.84576   0.52632   1.000
    C158    C    0.47106   0.88053   0.42513   1.000
    C159    C    0.97106   0.88053   0.42513   1.000
    C160    C    0.49381   0.87684   0.38714   1.000
    C161    C    0.99381   0.87684   0.38714   1.000
    C162    C    0.01833   0.87234   0.34233   1.000
    C163    C    0.51833   0.87234   0.34233   1.000
    C164    C    0.04835   0.92096   0.32247   1.000
    C165    C    0.54836   0.92096   0.32247   1.000
    C166    C    0.07109   0.91655   0.27775   1.000
    C167    C    0.57110   0.91655   0.27775   1.000
    C168    C    0.06445   0.86341   0.25223   1.000
    C169    C    0.56446   0.86341   0.25223   1.000
    C170    C    0.03485   0.81473   0.27175   1.000
    C171    C    0.53485   0.81473   0.27175   1.000
    C172    C    0.01206   0.81915   0.31636   1.000
    C173    C    0.51207   0.81915   0.31636   1.000
    C174    C    0.10096   0.97018   0.25795   1.000
    C175    C    0.60097   0.97018   0.25795   1.000
    C176    C    0.02806   0.75644   0.24615   1.000
    C177    C    0.52807   0.75644   0.24615   1.000
    C178    C    0.05519   0.64142   0.34243   1.000
    C179    C    0.55520   0.64142   0.34243   1.000
    C180    C    0.05145   0.67111   0.38813   1.000
    C181    C    0.55145   0.67111   0.38813   1.000
    C182    C    0.10024   0.70349   0.40420   1.000
    C183    C    0.60024   0.70349   0.40420   1.000
    C184    C    0.09828   0.73201   0.44664   1.000
    C185    C    0.59829   0.73201   0.44664   1.000
    C186    C    0.04732   0.72846   0.47440   1.000
    C187    C    0.54733   0.72846   0.47440   1.000
    C188    C    0.99809   0.69652   0.45781   1.000
    C189    C    0.49810   0.69652   0.45781   1.000
    C190    C    0.00020   0.66835   0.41509   1.000
    C191    C    0.50021   0.66835   0.41509   1.000
    C192    C    0.04746   0.75561   0.51843   1.000
    C193    C    0.54747   0.75561   0.51843   1.000
    C194    C    0.05149   0.77813   0.55660   1.000
    C195    C    0.55149   0.77813   0.55660   1.000
    C196    C    0.05449   0.80277   0.60150   1.000
    C197    C    0.55450   0.80277   0.60150   1.000
    C198    C    0.10880   0.81878   0.62138   1.000
    C199    C    0.60881   0.81878   0.62138   1.000
    C200    C    0.11085   0.84252   0.66596   1.000
    C201    C    0.61086   0.84252   0.66596   1.000
    C202    C    0.05871   0.85120   0.69106   1.000
    C203    C    0.55872   0.85120   0.69106   1.000
    C204    C    0.00469   0.83448   0.67182   1.000
    C205    C    0.50470   0.83448   0.67182   1.000
    C206    C    0.00258   0.81032   0.62748   1.000
    C207    C    0.50259   0.81032   0.62748   1.000
    C208    C    0.16952   0.85577   0.68722   1.000
    C209    C    0.66953   0.85577   0.68722   1.000
    C210    C    0.44798   0.84246   0.69753   1.000
    C211    C    0.94799   0.84246   0.69753   1.000
    C212    C    0.14489   0.09576   0.09900   1.000
    C213    C    0.64490   0.09576   0.09900   1.000
    C214    C    0.11477   0.10105   0.05422   1.000
    C215    C    0.61478   0.10105   0.05422   1.000
    C216    C    0.07674   0.05589   0.03851   1.000
    C217    C    0.57674   0.05589   0.03851   1.000
    C218    C    0.04792   0.06187   0.99656   1.000
    C219    C    0.54792   0.06187   0.99656   1.000
    C220    C    0.05647   0.11342   0.96894   1.000
    C221    C    0.55647   0.11342   0.96894   1.000
    C222    C    0.09438   0.15894   0.98516   1.000
    C223    C    0.59439   0.15894   0.98516   1.000
    C224    C    0.12300   0.15269   0.02713   1.000
    C225    C    0.62301   0.15269   0.02713   1.000
    C226    C    0.02851   0.11889   0.92553   1.000
    C227    C    0.52851   0.11889   0.92553   1.000
    C228    C    0.00595   0.12274   0.88745   1.000
    C229    C    0.50596   0.12274   0.88745   1.000
    C230    C    0.48151   0.12695   0.84258   1.000
    C231    C    0.98152   0.12695   0.84258   1.000
    C232    C    0.45213   0.07785   0.82262   1.000
    C233    C    0.95214   0.07785   0.82262   1.000
    C234    C    0.42943   0.08178   0.77787   1.000
    C235    C    0.92944   0.08178   0.77787   1.000
    C236    C    0.43538   0.13501   0.75243   1.000
    C237    C    0.93538   0.13501   0.75243   1.000
    C238    C    0.46425   0.18422   0.77205   1.000
    C239    C    0.96425   0.18422   0.77205   1.000
    C240    C    0.48709   0.18019   0.81669   1.000
    C241    C    0.98710   0.18019   0.81669   1.000
    C242    C    0.40005   0.02772   0.75802   1.000
    C243    C    0.90006   0.02772   0.75802   1.000
    C244    C    0.47020   0.24268   0.74658   1.000
    C245    C    0.97020   0.24268   0.74658   1.000
    C246    C    0.44248   0.35857   0.84251   1.000
    C247    C    0.94248   0.35857   0.84251   1.000
    C248    C    0.44644   0.32901   0.88820   1.000
    C249    C    0.94645   0.32901   0.88820   1.000
    C250    C    0.39772   0.29679   0.90453   1.000
    C251    C    0.89773   0.29680   0.90453   1.000
    C252    C    0.39998   0.26838   0.94687   1.000
    C253    C    0.89999   0.26839   0.94680   1.000
    C254    C    0.45120   0.27181   0.97446   1.000
    C255    C    0.95121   0.27182   0.97446   1.000
    C256    C    0.50035   0.30360   0.95764   1.000
    C257    C    0.00000   0.30361   0.95760   1.000
    C258    C    0.49792   0.33170   0.91497   1.000
    C259    C    0.99793   0.33170   0.91497   1.000
    C260    C    0.45145   0.24466   0.01839   1.000
    C261    C    0.95145   0.24467   0.01839   1.000
    C262    C    0.44788   0.22206   0.05652   1.000
    C263    C    0.94789   0.22207   0.05650   1.000
    C264    C    0.44520   0.19717   0.10131   1.000
    C265    C    0.94521   0.19718   0.10131   1.000
    C266    C    0.39096   0.18130   0.12128   1.000
    C267    C    0.89097   0.18131   0.12128   1.000
    C268    C    0.38913   0.15723   0.16571   1.000
    C269    C    0.88914   0.15723   0.16571   1.000
    C270    C    0.44146   0.14801   0.19051   1.000
    C271    C    0.94146   0.14802   0.19051   1.000
    C272    C    0.49543   0.16460   0.17120   1.000
    C273    C    0.99543   0.16460   0.17120   1.000
    C274    C    0.49730   0.18918   0.12703   1.000
    C275    C    0.99730   0.18918   0.12700   1.000
    C276    C    0.33051   0.14416   0.18710   1.000
    C277    C    0.83052   0.14416   0.18710   1.000
    C278    C    0.05227   0.15619   0.19676   1.000
    C279    C    0.55227   0.15619   0.19670   1.000
    C280    C    0.39479   0.40039   0.59865   1.000
    C281    C    0.89480   0.40039   0.59865   1.000
    C282    C    0.36490   0.39546   0.55317   1.000
    C283    C    0.86491   0.39546   0.55317   1.000
    C284    C    0.32710   0.44152   0.53721   1.000
    C285    C    0.82710   0.44152   0.53721   1.000
    C286    C    0.29842   0.43594   0.49520   1.000
    C287    C    0.79843   0.43594   0.49520   1.000
    C288    C    0.30690   0.38393   0.46770   1.000
    C289    C    0.80690   0.38393   0.46770   1.000
    C290    C    0.34464   0.33755   0.48414   1.000
    C291    C    0.84465   0.33755   0.48414   1.000
    C292    C    0.37309   0.34337   0.52620   1.000
    C293    C    0.87309   0.34337   0.52620   1.000
    C294    C    0.27895   0.37891   0.42426   1.000
    C295    C    0.77895   0.37891   0.42420   1.000
    C296    C    0.25617   0.37559   0.38625   1.000
    C297    C    0.75618   0.37559   0.38625   1.000
    C298    C    0.23158   0.37152   0.34142   1.000
    C299    C    0.73158   0.37152   0.34142   1.000
    C300    C    0.20230   0.42108   0.32110   1.000
    C301    C    0.70230   0.42108   0.32110   1.000
    C302    C    0.17953   0.41710   0.27642   1.000
    C303    C    0.67954   0.41710   0.27642   1.000
    C304    C    0.18534   0.36334   0.25130   1.000
    C305    C    0.68535   0.36334   0.25130   1.000
    C306    C    0.21410   0.31367   0.27123   1.000
    C307    C    0.71411   0.31367   0.27123   1.000
    C308    C    0.23697   0.31776   0.31584   1.000
    C309    C    0.73698   0.31776   0.31584   1.000
    C310    C    0.15021   0.47169   0.25633   1.000
    C311    C    0.65022   0.47169   0.25633   1.000
    C312    C    0.22008   0.25467   0.24615   1.000
    C313    C    0.72008   0.25467   0.24615   1.000
    C314    C    0.19479   0.13916   0.34241   1.000
    C315    C    0.69479   0.13916   0.34241   1.000
    C316    C    0.19856   0.16928   0.38793   1.000
    C317    C    0.69857   0.16928   0.38793   1.000
    C318    C    0.14952   0.20226   0.40420   1.000
    C319    C    0.64953   0.20226   0.40423   1.000
    C320    C    0.15159   0.23108   0.44647   1.000
    C321    C    0.65159   0.23108   0.44647   1.000
    C322    C    0.20292   0.22726   0.47399   1.000
    C323    C    0.70292   0.22726   0.47399   1.000
    C324    C    0.25242   0.19480   0.45716   1.000
    C325    C    0.75243   0.19480   0.45716   1.000
    C326    C    0.25019   0.16632   0.41457   1.000
    C327    C    0.75020   0.16632   0.41457   1.000
    C328    C    0.20280   0.25456   0.51795   1.000
    C329    C    0.70281   0.25456   0.51795   1.000
    C330    C    0.19869   0.27708   0.55610   1.000
    C331    C    0.69870   0.27708   0.55610   1.000
    C332    C    0.19528   0.30164   0.60111   1.000
    C333    C    0.69529   0.30164   0.60111   1.000
    C334    C    0.14056   0.31705   0.62114   1.000
    C335    C    0.64057   0.31705   0.62114   1.000
    C336    C    0.13799   0.34062   0.66570   1.000
    C337    C    0.63800   0.34062   0.66570   1.000
    C338    C    0.18999   0.34974   0.69070   1.000
    C339    C    0.69000   0.34974   0.69070   1.000
    C340    C    0.24444   0.33367   0.67135   1.000
    C341    C    0.74445   0.33367   0.67135   1.000
    C342    C    0.24710   0.30965   0.62696   1.000
    C343    C    0.74711   0.30965   0.62696   1.000
    C344    C    0.07905   0.35325   0.68725   1.000
    C345    C    0.57906   0.35325   0.68725   1.000
    C346    C    0.30094   0.34209   0.69711   1.000
    C347    C    0.80094   0.34209   0.69711   1.000
    C348    C    0.10484   0.59938   0.09856   1.000
    C349    C    0.60484   0.59938   0.09856   1.000
    C350    C    0.13477   0.60445   0.05317   1.000
    C351    C    0.63477   0.60445   0.05317   1.000
    C352    C    0.17289   0.55864   0.03717   1.000
    C353    C    0.67289   0.55864   0.03717   1.000
    C354    C    0.20154   0.56439   0.99522   1.000
    C355    C    0.70154   0.56439   0.99522   1.000
    C356    C    0.19277   0.61635   0.96784   1.000
    C357    C    0.69277   0.61635   0.96784   1.000
    C358    C    0.15473   0.66249   0.98434   1.000
    C359    C    0.65474   0.66249   0.98434   1.000
    C360    C    0.12627   0.65648   0.02631   1.000
    C361    C    0.62628   0.65648   0.02631   1.000
    C362    C    0.22070   0.62152   0.92446   1.000
    C363    C    0.72070   0.62152   0.92440   1.000
    C364    C    0.24342   0.62493   0.88646   1.000
    C365    C    0.74343   0.62493   0.88646   1.000
    C366    C    0.26800   0.62887   0.84166   1.000
    C367    C    0.76800   0.62887   0.84166   1.000
    C368    C    0.29710   0.57915   0.82137   1.000
    C369    C    0.79710   0.57915   0.82137   1.000
    C370    C    0.31987   0.58294   0.77666   1.000
    C371    C    0.81988   0.58294   0.77666   1.000
    C372    C    0.31427   0.63661   0.75159   1.000
    C373    C    0.81427   0.63661   0.75159   1.000
    C374    C    0.28560   0.68638   0.77151   1.000
    C375    C    0.78560   0.68638   0.77151   1.000
    C376    C    0.26271   0.68254   0.81610   1.000
    C377    C    0.76272   0.68254   0.81610   1.000
    C378    C    0.34889   0.52819   0.75650   1.000
    C379    C    0.84889   0.52819   0.75650   1.000
    C380    C    0.27968   0.74515   0.74634   1.000
    C381    C    0.77969   0.74515   0.74634   1.000
    C382    C    0.30487   0.85992   0.84262   1.000
    C383    C    0.80487   0.85992   0.84262   1.000
    C384    C    0.30051   0.83031   0.88822   1.000
    C385    C    0.80051   0.83031   0.88822   1.000
    C386    C    0.34917   0.79711   0.90492   1.000
    C387    C    0.84918   0.79711   0.90492   1.000
    C388    C    0.34652   0.76866   0.94720   1.000
    C389    C    0.84652   0.76866   0.94720   1.000
    C390    C    0.29494   0.77301   0.97436   1.000
    C391    C    0.79495   0.77301   0.97436   1.000
    C392    C    0.24584   0.80575   0.95716   1.000
    C393    C    0.74584   0.80575   0.95716   1.000
    C394    C    0.24867   0.83391   0.91455   1.000
    C395    C    0.74868   0.83391   0.91455   1.000
    C396    C    0.29453   0.74581   0.01827   1.000
    C397    C    0.79453   0.74581   0.01827   1.000
    C398    C    0.29847   0.72309   0.05637   1.000
    C399    C    0.79848   0.72309   0.05637   1.000
    C400    C    0.30201   0.69823   0.10116   1.000
    C401    C    0.80202   0.69822   0.10116   1.000
    C402    C    0.35681   0.68235   0.12088   1.000
    C403    C    0.85682   0.68235   0.12088   1.000
    C404    C    0.35965   0.65858   0.16539   1.000
    C405    C    0.85966   0.65858   0.16539   1.000
    C406    C    0.30779   0.64965   0.19052   1.000
    C407    C    0.80779   0.64965   0.19052   1.000
    C408    C    0.25324   0.66606   0.17141   1.000
    C409    C    0.75325   0.66606   0.17141   1.000
    C410    C    0.25037   0.69035   0.12716   1.000
    C411    C    0.75037   0.69035   0.12716   1.000
    C412    C    0.41875   0.64557   0.18653   1.000
    C413    C    0.91876   0.64557   0.18653   1.000
    C414    C    0.19680   0.65771   0.19721   1.000
    C415    C    0.69680   0.65771   0.19721   1.000
    C416    C    0.31054   0.90274   0.72200   1.000
    C417    C    0.81055   0.90274   0.72200   1.000
    C418    C    0.32258   0.85929   0.61245   1.000
    C419    C    0.82258   0.85929   0.61245   1.000
    C420    C    0.36508   0.95103   0.62249   1.000
    C421    C    0.86509   0.95103   0.62249   1.000
    C422    C    0.10531   0.01621   0.28352   1.000
    C423    C    0.60532   0.01621   0.28352   1.000
    C424    C    0.11973   0.96600   0.21000   1.000
    C425    C    0.61974   0.96600   0.21000   1.000
    C426    C    0.05012   0.75207   0.20590   1.000
    C427    C    0.55013   0.75207   0.20590   1.000
    C428    C    0.50111   0.71507   0.26762   1.000
    C429    C    0.00000   0.71507   0.26762   1.000
    C430    C    0.10497   0.64579   0.32183   1.000
    C431    C    0.60498   0.64579   0.32183   1.000
    C432    C    0.00995   0.61432   0.32634   1.000
    C433    C    0.50995   0.61432   0.32634   1.000
    C434    C    0.21530   0.83872   0.66587   1.000
    C435    C    0.71530   0.83872   0.66587   1.000
    C436    C    0.16839   0.88302   0.72662   1.000
    C437    C    0.66840   0.88302   0.72662   1.000
    C438    C    0.40208   0.82060   0.68006   1.000
    C439    C    0.90209   0.82060   0.68006   1.000
    C440    C    0.45063   0.87239   0.73566   1.000
    C441    C    0.95063   0.87239   0.73566   1.000
    C442    C    0.18969   0.09610   0.22182   1.000
    C443    C    0.68970   0.09610   0.22182   1.000
    C444    C    0.17748   0.13825   0.11283   1.000
    C445    C    0.67749   0.13825   0.11283   1.000
    C446    C    0.13479   0.04662   0.12254   1.000
    C447    C    0.63480   0.04662   0.12254   1.000
    C448    C    0.39504   0.98201   0.78374   1.000
    C449    C    0.89505   0.98201   0.78374   1.000
    C450    C    0.38225   0.03138   0.71577   1.000
    C451    C    0.88226   0.03138   0.71577   1.000
    C452    C    0.44725   0.24696   0.70659   1.000
    C453    C    0.94725   0.24696   0.70659   1.000
    C454    C    0.99730   0.28421   0.76785   1.000
    C455    C    0.49731   0.28421   0.76785   1.000
    C456    C    0.39264   0.35416   0.82192   1.000
    C457    C    0.89265   0.35416   0.82192   1.000
    C458    C    0.48767   0.38564   0.82643   1.000
    C459    C    0.98767   0.38564   0.82643   1.000
    C460    C    0.28467   0.16122   0.16583   1.000
    C461    C    0.78468   0.16122   0.16583   1.000
    C462    C    0.33173   0.11709   0.22650   1.000
    C463    C    0.83174   0.11709   0.22650   1.000
    C464    C    0.09797   0.17916   0.17995   1.000
    C465    C    0.59798   0.17916   0.17995   1.000
    C466    C    0.04981   0.12485   0.23415   1.000
    C467    C    0.54982   0.12485   0.23415   1.000
    C468    C    0.43747   0.40101   0.72170   1.000
    C469    C    0.93748   0.40101   0.72170   1.000
    C470    C    0.42690   0.35702   0.61229   1.000
    C471    C    0.92690   0.35702   0.61229   1.000
    C472    C    0.38500   0.45028   0.62120   1.000
    C473    C    0.88501   0.45028   0.62120   1.000
    C474    C    0.14524   0.51768   0.28200   1.000
    C475    C    0.64525   0.51768   0.28200   1.000
    C476    C    0.13242   0.46828   0.21408   1.000
    C477    C    0.63242   0.46828   0.21408   1.000
    C478    C    0.19725   0.25024   0.20610   1.000
    C479    C    0.69726   0.25024   0.20610   1.000
    C480    C    0.24723   0.21289   0.26777   1.000
    C481    C    0.74724   0.21289   0.26777   1.000
    C482    C    0.14472   0.14354   0.32202   1.000
    C483    C    0.64473   0.14354   0.32202   1.000
    C484    C    0.24035   0.11167   0.32625   1.000
    C485    C    0.74035   0.11167   0.32625   1.000
    C486    C    0.03371   0.33601   0.66584   1.000
    C487    C    0.53372   0.33601   0.66584   1.000
    C488    C    0.07946   0.38020   0.72675   1.000
    C489    C    0.57947   0.38020   0.72675   1.000
    C490    C    0.34749   0.32031   0.67988   1.000
    C491    C    0.84750   0.32031   0.67988   1.000
    C492    C    0.29734   0.37224   0.73511   1.000
    C493    C    0.79735   0.37224   0.73511   1.000
    C494    C    0.06034   0.59809   0.22159   1.000
    C495    C    0.56035   0.59809   0.22159   1.000
    C496    C    0.07230   0.64251   0.11208   1.000
    C497    C    0.57230   0.64251   0.11208   1.000
    C498    C    0.11507   0.54974   0.12120   1.000
    C499    C    0.61508   0.54974   0.12120   1.000
    C500    C    0.35266   0.48202   0.78196   1.000
    C501    C    0.85267   0.48202   0.78196   1.000
    C502    C    0.36757   0.53169   0.71451   1.000
    C503    C    0.86758   0.53169   0.71451   1.000
    C504    C    0.30271   0.74926   0.70643   1.000
    C505    C    0.80271   0.74926   0.70643   1.000
    C506    C    0.25240   0.78704   0.76777   1.000
    C507    C    0.75241   0.78704   0.76777   1.000
    C508    C    0.35480   0.85423   0.82220   1.000
    C509    C    0.85481   0.85423   0.82220   1.000
    C510    C    0.25984   0.88826   0.82639   1.000
    C511    C    0.75985   0.88826   0.82639   1.000
    C512    C    0.46407   0.66154   0.16457   1.000
    C513    C    0.96408   0.66154   0.16457   1.000
    C514    C    0.41843   0.61963   0.22635   1.000
    C515    C    0.91844   0.61963   0.22635   1.000
    C516    C    0.15023   0.67956   0.18008   1.000
    C517    C    0.65024   0.67956   0.18008   1.000
    C518    C    0.20040   0.62748   0.23512   1.000
    C519    C    0.70040   0.62748   0.23512   1.000
    O520    O    0.79651   0.73445   0.03732   1.000
    O521    O    0.79474   0.75941   0.99632   1.000
    O522    O    0.29650   0.73445   0.03732   1.000
    O523    O    0.29473   0.75941   0.99632   1.000
    O524    O    0.44967   0.23336   0.03746   1.000
    O525    O    0.45132   0.25824   0.99643   1.000
    O526    O    0.94967   0.23337   0.03744   1.000
    O527    O    0.95133   0.25824   0.99643   1.000
    O528    O    0.11160   0.67421   0.03270   1.000
    O529    O    0.13052   0.63046   0.03974   1.000
    O530    O    0.14050   0.65948   0.00533   1.000
    O531    O    0.61161   0.67421   0.03270   1.000
    O532    O    0.63052   0.63046   0.03974   1.000
    O533    O    0.64050   0.65948   0.00533   1.000
    O534    O    0.13764   0.17016   0.03342   1.000
    O535    O    0.11888   0.12687   0.04068   1.000
    O536    O    0.10869   0.15582   0.00615   1.000
    O537    O    0.63765   0.17016   0.03342   1.000
    O538    O    0.61889   0.12687   0.04068   1.000
    O539    O    0.60870   0.15582   0.00615   1.000
    O540    O    0.15383   0.58154   0.04517   1.000
    O541    O    0.17633   0.53862   0.04769   1.000
    O542    O    0.18721   0.56151   0.01620   1.000
    O543    O    0.65383   0.58154   0.04517   1.000
    O544    O    0.67633   0.53862   0.04769   1.000
    O545    O    0.68722   0.56151   0.01620   1.000
    O546    O    0.09575   0.07847   0.04636   1.000
    O547    O    0.07340   0.03604   0.04911   1.000
    O548    O    0.06233   0.05888   0.01754   1.000
    O549    O    0.59576   0.07847   0.04636   1.000
    O550    O    0.57341   0.03604   0.04914   1.000
    O551    O    0.56233   0.05888   0.01754   1.000
    O552    O    0.11980   0.60191   0.07587   1.000
    O553    O    0.61981   0.60191   0.07587   1.000
    O554    O    0.62984   0.09840   0.07661   1.000
    O555    O    0.12983   0.09840   0.07661   1.000
    O556    O    0.80025   0.71066   0.07877   1.000
    O557    O    0.30024   0.71066   0.07877   1.000
    O558    O    0.94655   0.20962   0.07891   1.000
    O559    O    0.44654   0.20962   0.07892   1.000
    O560    O    0.58857   0.62094   0.10532   1.000
    O561    O    0.60996   0.57456   0.10988   1.000
    O562    O    0.08857   0.62094   0.10532   1.000
    O563    O    0.10995   0.57456   0.10988   1.000
    O564    O    0.66119   0.11700   0.10592   1.000
    O565    O    0.63985   0.07119   0.11077   1.000
    O566    O    0.16119   0.11700   0.10592   1.000
    O567    O    0.13984   0.07119   0.11077   1.000
    O568    O    0.32941   0.69029   0.11102   1.000
    O569    O    0.27619   0.69429   0.11416   1.000
    O570    O    0.82942   0.69029   0.11102   1.000
    O571    O    0.77620   0.69429   0.11416   1.000
    O572    O    0.91809   0.18924   0.11130   1.000
    O573    O    0.97126   0.19318   0.11416   1.000
    O574    O    0.41808   0.18924   0.11130   1.000
    O575    O    0.47125   0.19317   0.11417   1.000
    O576    O    0.37719   0.68572   0.11138   1.000
    O577    O    0.87719   0.68572   0.11138   1.000
    O578    O    0.37041   0.18476   0.11191   1.000
    O579    O    0.87042   0.18477   0.11191   1.000
    O580    O    0.06376   0.65611   0.14482   1.000
    O581    O    0.56377   0.65611   0.14482   1.000
    O582    O    0.51844   0.19559   0.11983   1.000
    O583    O    0.01844   0.19560   0.11981   1.000
    O584    O    0.68502   0.15316   0.14532   1.000
    O585    O    0.18501   0.15316   0.14532   1.000
    O586    O    0.22899   0.69672   0.12005   1.000
    O587    O    0.72900   0.69672   0.12005   1.000
    O588    O    0.85824   0.67046   0.14313   1.000
    O589    O    0.35823   0.67047   0.14313   1.000
    O590    O    0.10507   0.54327   0.15272   1.000
    O591    O    0.60508   0.54327   0.15272   1.000
    O592    O    0.39005   0.16926   0.14350   1.000
    O593    O    0.89005   0.16927   0.14350   1.000
    O594    O    0.64503   0.04041   0.15414   1.000
    O595    O    0.14502   0.04041   0.15414   1.000
    O596    O    0.99637   0.17689   0.14910   1.000
    O597    O    0.49636   0.17689   0.14911   1.000
    O598    O    0.75181   0.67821   0.14929   1.000
    O599    O    0.25181   0.67821   0.14929   1.000
    O600    O    0.50966   0.66562   0.17106   1.000
    O601    O    0.44141   0.65356   0.17555   1.000
    O602    O    0.00966   0.66562   0.17106   1.000
    O603    O    0.94142   0.65356   0.17555   1.000
    O604    O    0.38920   0.65207   0.17596   1.000
    O605    O    0.33372   0.65411   0.17796   1.000
    O606    O    0.88921   0.65207   0.17596   1.000
    O607    O    0.83372   0.65411   0.17796   1.000
    O608    O    0.85983   0.15070   0.17641   1.000
    O609    O    0.91530   0.15262   0.17811   1.000
    O610    O    0.35982   0.15069   0.17641   1.000
    O611    O    0.41529   0.15262   0.17811   1.000
    O612    O    0.73861   0.16464   0.17181   1.000
    O613    O    0.80760   0.15269   0.17646   1.000
    O614    O    0.23861   0.16464   0.17181   1.000
    O615    O    0.30759   0.15269   0.17646   1.000
    O616    O    0.96845   0.15631   0.18086   1.000
    O617    O    0.02385   0.16040   0.18398   1.000
    O618    O    0.46844   0.15631   0.18086   1.000
    O619    O    0.52385   0.16040   0.18395   1.000
    O620    O    0.78052   0.65785   0.18097   1.000
    O621    O    0.72503   0.66188   0.18431   1.000
    O622    O    0.28051   0.65785   0.18097   1.000
    O623    O    0.22502   0.66188   0.18431   1.000
    O624    O    0.60274   0.67463   0.17882   1.000
    O625    O    0.55268   0.71089   0.19173   1.000
    O626    O    0.10273   0.67463   0.17882   1.000
    O627    O    0.05268   0.71089   0.19173   1.000
    O628    O    0.64527   0.17361   0.17888   1.000
    O629    O    0.69491   0.20915   0.19195   1.000
    O630    O    0.14526   0.17361   0.17888   1.000
    O631    O    0.19490   0.20915   0.19195   1.000
    O632    O    0.57513   0.16768   0.18833   1.000
    O633    O    0.07512   0.16768   0.18835   1.000
    O634    O    0.17351   0.66863   0.18865   1.000
    O635    O    0.67352   0.66863   0.18865   1.000
    O636    O    0.11375   0.50254   0.19916   1.000
    O637    O    0.07771   0.56744   0.20292   1.000
    O638    O    0.61375   0.50254   0.19916   1.000
    O639    O    0.57772   0.56744   0.20292   1.000
    O640    O    0.63750   0.00010   0.19787   1.000
    O641    O    0.67248   0.06514   0.20378   1.000
    O642    O    0.13749   0.00010   0.19787   1.000
    O643    O    0.17247   0.06514   0.20378   1.000
    O644    O    0.41859   0.63260   0.20644   1.000
    O645    O    0.91860   0.63260   0.20644   1.000
    O646    O    0.33112   0.13063   0.20680   1.000
    O647    O    0.83113   0.13063   0.20680   1.000
    O648    O    0.94076   0.13842   0.20771   1.000
    O649    O    0.44075   0.13842   0.20771   1.000
    O650    O    0.30888   0.64020   0.20776   1.000
    O651    O    0.80889   0.64020   0.20776   1.000
    O652    O    0.55105   0.14052   0.21543   1.000
    O653    O    0.05104   0.14052   0.21546   1.000
    O654    O    0.69860   0.64259   0.21617   1.000
    O655    O    0.19860   0.64259   0.21617   1.000
    O656    O    0.03909   0.75425   0.22603   1.000
    O657    O    0.53910   0.75425   0.22603   1.000
    O658    O    0.70867   0.25246   0.22613   1.000
    O659    O    0.20866   0.25246   0.22613   1.000
    O660    O    0.61035   0.96809   0.23398   1.000
    O661    O    0.11034   0.96809   0.23398   1.000
    O662    O    0.14131   0.46999   0.23520   1.000
    O663    O    0.64132   0.46999   0.23520   1.000
    O664    O    0.67649   0.36167   0.23394   1.000
    O665    O    0.17649   0.36167   0.23394   1.000
    O666    O    0.07328   0.86159   0.23487   1.000
    O667    O    0.57329   0.86159   0.23487   1.000
    O668    O    0.52635   0.61153   0.24079   1.000
    O669    O    0.02635   0.61153   0.24079   1.000
    O670    O    0.22365   0.10934   0.24089   1.000
    O671    O    0.72366   0.10934   0.24089   1.000
    O672    O    0.45539   0.62231   0.24317   1.000
    O673    O    0.95539   0.62231   0.24317   1.000
    O674    O    0.29467   0.11983   0.24323   1.000
    O675    O    0.79468   0.11983   0.24323   1.000
    O676    O    0.08609   0.11339   0.25017   1.000
    O677    O    0.58610   0.11339   0.25017   1.000
    O678    O    0.66406   0.61583   0.25052   1.000
    O679    O    0.16406   0.61583   0.25052   1.000
    O680    O    0.01403   0.73575   0.25689   1.000
    O681    O    0.03145   0.78558   0.25895   1.000
    O682    O    0.23365   0.23378   0.25696   1.000
    O683    O    0.21709   0.28417   0.25869   1.000
    O684    O    0.73366   0.23378   0.25696   1.000
    O685    O    0.71709   0.28417   0.25869   1.000
    O686    O    0.51459   0.73575   0.25689   1.000
    O687    O    0.53146   0.78558   0.25895   1.000
    O688    O    0.69973   0.33851   0.26127   1.000
    O689    O    0.68245   0.39022   0.26386   1.000
    O690    O    0.19972   0.33851   0.26127   1.000
    O691    O    0.18244   0.39022   0.26386   1.000
    O692    O    0.54966   0.83907   0.26199   1.000
    O693    O    0.56778   0.88998   0.26499   1.000
    O694    O    0.04965   0.83907   0.26199   1.000
    O695    O    0.06777   0.88998   0.26499   1.000
    O696    O    0.16487   0.44440   0.26638   1.000
    O697    O    0.14773   0.49469   0.26916   1.000
    O698    O    0.66488   0.44440   0.26638   1.000
    O699    O    0.64773   0.49469   0.26916   1.000
    O700    O    0.08603   0.94336   0.26785   1.000
    O701    O    0.10314   0.99319   0.27074   1.000
    O702    O    0.58603   0.94336   0.26785   1.000
    O703    O    0.60314   0.99319   0.27074   1.000
    O704    O    0.75242   0.16773   0.26386   1.000
    O705    O    0.74898   0.11712   0.29310   1.000
    O706    O    0.25242   0.16773   0.26386   1.000
    O707    O    0.24898   0.11712   0.29310   1.000
    O708    O    0.49673   0.67002   0.26381   1.000
    O709    O    0.50115   0.61965   0.29317   1.000
    O710    O    0.99618   0.67002   0.26381   1.000
    O711    O    0.00115   0.61965   0.29317   1.000
    O712    O    0.13648   0.56093   0.27396   1.000
    O713    O    0.11635   0.62498   0.29387   1.000
    O714    O    0.63649   0.56093   0.27396   1.000
    O715    O    0.61635   0.62498   0.29387   1.000
    O716    O    0.61385   0.05907   0.27486   1.000
    O717    O    0.63355   0.12273   0.29411   1.000
    O718    O    0.11384   0.05907   0.27486   1.000
    O719    O    0.13354   0.12273   0.29411   1.000
    O720    O    0.22554   0.31571   0.29354   1.000
    O721    O    0.72554   0.31571   0.29354   1.000
    O722    O    0.02345   0.81694   0.29406   1.000
    O723    O    0.52346   0.81694   0.29406   1.000
    O724    O    0.19092   0.41909   0.29876   1.000
    O725    O    0.69092   0.41909   0.29876   1.000
    O726    O    0.55973   0.91875   0.30011   1.000
    O727    O    0.05972   0.91875   0.30011   1.000
    O728    O    0.24802   0.29820   0.32329   1.000
    O729    O    0.23428   0.34464   0.32863   1.000
    O730    O    0.74803   0.29820   0.32329   1.000
    O731    O    0.73428   0.34464   0.32863   1.000
    O732    O    0.50070   0.79995   0.32366   1.000
    O733    O    0.51520   0.84575   0.32935   1.000
    O734    O    0.00070   0.79996   0.32366   1.000
    O735    O    0.01519   0.84575   0.32935   1.000
    O736    O    0.69988   0.44216   0.33057   1.000
    O737    O    0.71694   0.39630   0.33126   1.000
    O738    O    0.19987   0.44216   0.33057   1.000
    O739    O    0.21694   0.39630   0.33126   1.000
    O740    O    0.58009   0.64360   0.33213   1.000
    O741    O    0.08008   0.64360   0.33213   1.000
    O742    O    0.66976   0.14135   0.33221   1.000
    O743    O    0.16975   0.14135   0.33221   1.000
    O744    O    0.55108   0.94183   0.33205   1.000
    O745    O    0.53335   0.89665   0.33240   1.000
    O746    O    0.05107   0.94183   0.33205   1.000
    O747    O    0.03334   0.89665   0.33240   1.000
    O748    O    0.71757   0.12541   0.33433   1.000
    O749    O    0.21757   0.12541   0.33433   1.000
    O750    O    0.53257   0.62787   0.33438   1.000
    O751    O    0.03257   0.62787   0.33438   1.000
    O752    O    0.24388   0.37355   0.36384   1.000
    O753    O    0.74388   0.37355   0.36384   1.000
    O754    O    0.50607   0.87459   0.36474   1.000
    O755    O    0.00607   0.87459   0.36474   1.000
    O756    O    0.69668   0.15422   0.36517   1.000
    O757    O    0.19667   0.15422   0.36517   1.000
    O758    O    0.55332   0.65626   0.36528   1.000
    O759    O    0.05332   0.65626   0.36528   1.000
    O760    O    0.11986   0.70463   0.39352   1.000
    O761    O    0.61986   0.70463   0.39352   1.000
    O762    O    0.62976   0.20349   0.39362   1.000
    O763    O    0.12975   0.20349   0.39362   1.000
    O764    O    0.26756   0.37725   0.40526   1.000
    O765    O    0.76756   0.37725   0.40523   1.000
    O766    O    0.98244   0.87868   0.40614   1.000
    O767    O    0.48243   0.87868   0.40614   1.000
    O768    O    0.17404   0.18577   0.39607   1.000
    O769    O    0.22438   0.16780   0.40125   1.000
    O770    O    0.67405   0.18577   0.39608   1.000
    O771    O    0.72438   0.16780   0.40125   1.000
    O772    O    0.57585   0.68730   0.39617   1.000
    O773    O    0.52583   0.66973   0.40161   1.000
    O774    O    0.07584   0.68730   0.39617   1.000
    O775    O    0.02583   0.66973   0.40161   1.000
    O776    O    0.26915   0.15367   0.40803   1.000
    O777    O    0.76915   0.15366   0.40803   1.000
    O778    O    0.98137   0.65589   0.40862   1.000
    O779    O    0.48137   0.65589   0.40862   1.000
    O780    O    0.09926   0.71775   0.42542   1.000
    O781    O    0.59927   0.71775   0.42542   1.000
    O782    O    0.15055   0.21667   0.42534   1.000
    O783    O    0.65056   0.21667   0.42535   1.000
    O784    O    0.75131   0.18056   0.43587   1.000
    O785    O    0.25131   0.18056   0.43587   1.000
    O786    O    0.49915   0.68243   0.43645   1.000
    O787    O    0.99915   0.68243   0.43645   1.000
    O788    O    0.79293   0.38142   0.44595   1.000
    O789    O    0.29292   0.38142   0.44598   1.000
    O790    O    0.95704   0.88309   0.44682   1.000
    O791    O    0.45703   0.88309   0.44682   1.000
    O792    O    0.13261   0.24386   0.45282   1.000
    O793    O    0.17725   0.22917   0.46023   1.000
    O794    O    0.63262   0.24386   0.45282   1.000
    O795    O    0.67726   0.22917   0.46023   1.000
    O796    O    0.11715   0.74457   0.45294   1.000
    O797    O    0.07280   0.73024   0.46052   1.000
    O798    O    0.61716   0.74457   0.45294   1.000
    O799    O    0.57281   0.73024   0.46052   1.000
    O800    O    0.22767   0.21103   0.46558   1.000
    O801    O    0.27224   0.19330   0.46773   1.000
    O802    O    0.72768   0.21103   0.46558   1.000
    O803    O    0.77224   0.19330   0.46773   1.000
    O804    O    0.52271   0.71249   0.46610   1.000
    O805    O    0.47845   0.69512   0.46851   1.000
    O806    O    0.02271   0.71249   0.46610   1.000
    O807    O    0.97844   0.69512   0.46851   1.000
    O808    O    0.40176   0.82016   0.47356   1.000
    O809    O    0.90177   0.82016   0.47356   1.000
    O810    O    0.84790   0.31740   0.47368   1.000
    O811    O    0.34790   0.31741   0.47368   1.000
    O812    O    0.82578   0.36074   0.47592   1.000
    O813    O    0.80267   0.40994   0.48145   1.000
    O814    O    0.32577   0.36074   0.47592   1.000
    O815    O    0.30266   0.40994   0.48145   1.000
    O816    O    0.92403   0.86282   0.47640   1.000
    O817    O    0.94731   0.91127   0.48255   1.000
    O818    O    0.42402   0.86282   0.47640   1.000
    O819    O    0.44730   0.91127   0.48255   1.000
    O820    O    0.20286   0.24091   0.49597   1.000
    O821    O    0.70286   0.24091   0.49597   1.000
    O822    O    0.04739   0.74204   0.49641   1.000
    O823    O    0.54740   0.74204   0.49641   1.000
    O824    O    0.78378   0.45383   0.48907   1.000
    O825    O    0.28378   0.45383   0.48907   1.000
    O826    O    0.85887   0.34046   0.50517   1.000
    O827    O    0.35887   0.34046   0.50517   1.000
    O828    O    0.89078   0.84288   0.50530   1.000
    O829    O    0.39077   0.84288   0.50530   1.000
    O830    O    0.46633   0.95450   0.49069   1.000
    O831    O    0.96633   0.95450   0.49069   1.000
    O832    O    0.81277   0.43873   0.51621   1.000
    O833    O    0.31276   0.43873   0.51621   1.000
    O834    O    0.93722   0.93966   0.51758   1.000
    O835    O    0.43722   0.93966   0.51758   1.000
    O836    O    0.20074   0.26582   0.53703   1.000
    O837    O    0.70075   0.26582   0.53703   1.000
    O838    O    0.04947   0.76687   0.53752   1.000
    O839    O    0.54948   0.76687   0.53752   1.000
    O840    O    0.88764   0.32554   0.53257   1.000
    O841    O    0.86900   0.36941   0.53969   1.000
    O842    O    0.38764   0.32554   0.53255   1.000
    O843    O    0.36900   0.36941   0.53969   1.000
    O844    O    0.36188   0.82822   0.53245   1.000
    O845    O    0.38068   0.87142   0.54011   1.000
    O846    O    0.86188   0.82822   0.53245   1.000
    O847    O    0.88068   0.87142   0.54011   1.000
    O848    O    0.84601   0.41849   0.54519   1.000
    O849    O    0.82378   0.46155   0.54777   1.000
    O850    O    0.34600   0.41849   0.54519   1.000
    O851    O    0.32378   0.46155   0.54777   1.000
    O852    O    0.40384   0.91974   0.54623   1.000
    O853    O    0.42619   0.96214   0.54929   1.000
    O854    O    0.90385   0.91975   0.54623   1.000
    O855    O    0.92620   0.96214   0.54938   1.000
    O856    O    0.37985   0.39792   0.57591   1.000
    O857    O    0.87986   0.39792   0.57591   1.000
    O858    O    0.86991   0.89952   0.57662   1.000
    O859    O    0.36990   0.89952   0.57662   1.000
    O860    O    0.69699   0.28936   0.57861   1.000
    O861    O    0.19698   0.28936   0.57861   1.000
    O862    O    0.05299   0.79045   0.57905   1.000
    O863    O    0.55300   0.79045   0.57905   1.000
    O864    O    0.41084   0.37870   0.60547   1.000
    O865    O    0.38990   0.42534   0.60993   1.000
    O866    O    0.91085   0.37870   0.60547   1.000
    O867    O    0.88990   0.42534   0.60993   1.000
    O868    O    0.33877   0.88063   0.60590   1.000
    O869    O    0.36002   0.92650   0.61092   1.000
    O870    O    0.83877   0.88063   0.60590   1.000
    O871    O    0.86003   0.92650   0.61092   1.000
    O872    O    0.16792   0.30935   0.61113   1.000
    O873    O    0.22119   0.30565   0.61403   1.000
    O874    O    0.66793   0.30935   0.61113   1.000
    O875    O    0.72120   0.30565   0.61403   1.000
    O876    O    0.58165   0.81077   0.61144   1.000
    O877    O    0.52854   0.80655   0.61449   1.000
    O878    O    0.08165   0.81077   0.61144   1.000
    O879    O    0.02854   0.80655   0.61449   1.000
    O880    O    0.62013   0.31358   0.61172   1.000
    O881    O    0.12013   0.31358   0.61172   1.000
    O882    O    0.62930   0.81549   0.61191   1.000
    O883    O    0.12930   0.81549   0.61191   1.000
    O884    O    0.43458   0.34281   0.64505   1.000
    O885    O    0.93459   0.34281   0.64505   1.000
    O886    O    0.76845   0.30344   0.61968   1.000
    O887    O    0.26844   0.30344   0.61968   1.000
    O888    O    0.31498   0.84509   0.64513   1.000
    O889    O    0.81499   0.84509   0.64513   1.000
    O890    O    0.48141   0.80388   0.62030   1.000
    O891    O    0.98141   0.80388   0.62030   1.000
    O892    O    0.13928   0.32883   0.64342   1.000
    O893    O    0.63928   0.32883   0.64342   1.000
    O894    O    0.39483   0.45668   0.65278   1.000
    O895    O    0.89484   0.45668   0.65278   1.000
    O896    O    0.10983   0.83065   0.64367   1.000
    O897    O    0.60983   0.83065   0.64367   1.000
    O898    O    0.35513   0.95736   0.65411   1.000
    O899    O    0.85514   0.95736   0.65411   1.000
    O900    O    0.74578   0.32166   0.64916   1.000
    O901    O    0.24577   0.32166   0.64916   1.000
    O902    O    0.50364   0.82240   0.64965   1.000
    O903    O    0.00364   0.82240   0.64965   1.000
    O904    O    0.60853   0.34693   0.67647   1.000
    O905    O    0.66400   0.34518   0.67820   1.000
    O906    O    0.10852   0.34693   0.67647   1.000
    O907    O    0.16399   0.34518   0.67820   1.000
    O908    O    0.98799   0.33231   0.67183   1.000
    O909    O    0.05638   0.34463   0.67654   1.000
    O910    O    0.48799   0.33231   0.67183   1.000
    O911    O    0.55639   0.34463   0.67654   1.000
    O912    O    0.76135   0.83480   0.67183   1.000
    O913    O    0.69241   0.84725   0.67654   1.000
    O914    O    0.26134   0.83480   0.67183   1.000
    O915    O    0.19241   0.84725   0.67654   1.000
    O916    O    0.64019   0.84915   0.67659   1.000
    O917    O    0.58479   0.84686   0.67851   1.000
    O918    O    0.14018   0.84915   0.67659   1.000
    O919    O    0.08478   0.84686   0.67851   1.000
    O920    O    0.71722   0.34171   0.68102   1.000
    O921    O    0.77270   0.33788   0.68423   1.000
    O922    O    0.21722   0.34171   0.68102   1.000
    O923    O    0.27269   0.33788   0.68423   1.000
    O924    O    0.03170   0.84284   0.68144   1.000
    O925    O    0.97634   0.83847   0.68467   1.000
    O926    O    0.53171   0.84284   0.68144   1.000
    O927    O    0.47634   0.83847   0.68467   1.000
    O928    O    0.85474   0.82574   0.67893   1.000
    O929    O    0.80506   0.79007   0.69212   1.000
    O930    O    0.35474   0.82574   0.67893   1.000
    O931    O    0.30505   0.79007   0.69212   1.000
    O932    O    0.89488   0.32445   0.67885   1.000
    O933    O    0.94476   0.28778   0.69220   1.000
    O934    O    0.39488   0.32445   0.67885   1.000
    O935    O    0.44475   0.28778   0.69220   1.000
    O936    O    0.82422   0.33120   0.68849   1.000
    O937    O    0.32421   0.33120   0.68849   1.000
    O938    O    0.92504   0.83153   0.68880   1.000
    O939    O    0.42503   0.83153   0.68880   1.000
    O940    O    0.38612   0.49738   0.69944   1.000
    O941    O    0.42107   0.43204   0.70303   1.000
    O942    O    0.88612   0.49738   0.69944   1.000
    O943    O    0.92107   0.43204   0.70303   1.000
    O944    O    0.36372   0.99754   0.70075   1.000
    O945    O    0.32786   0.93322   0.70386   1.000
    O946    O    0.86372   0.99754   0.70075   1.000
    O947    O    0.82787   0.93322   0.70386   1.000
    O948    O    0.66896   0.86940   0.70692   1.000
    O949    O    0.16896   0.86940   0.70692   1.000
    O950    O    0.57926   0.36672   0.70700   1.000
    O951    O    0.07925   0.36672   0.70700   1.000
    O952    O    0.18899   0.35911   0.70802   1.000
    O953    O    0.68900   0.35911   0.70802   1.000
    O954    O    0.05951   0.86064   0.70803   1.000
    O955    O    0.55952   0.86064   0.70803   1.000
    O956    O    0.29914   0.35716   0.71611   1.000
    O957    O    0.79914   0.35716   0.71611   1.000
    O958    O    0.44930   0.85742   0.71659   1.000
    O959    O    0.94931   0.85743   0.71659   1.000
    O960    O    0.79120   0.74721   0.72639   1.000
    O961    O    0.29119   0.74721   0.72639   1.000
    O962    O    0.45872   0.24482   0.72659   1.000
    O963    O    0.95873   0.24482   0.72659   1.000
    O964    O    0.85823   0.52994   0.73551   1.000
    O965    O    0.35823   0.52994   0.73551   1.000
    O966    O    0.89116   0.02955   0.73690   1.000
    O967    O    0.39115   0.02955   0.73690   1.000
    O968    O    0.32313   0.63820   0.73424   1.000
    O969    O    0.82314   0.63820   0.73424   1.000
    O970    O    0.42653   0.13666   0.73472   1.000
    O971    O    0.92654   0.13666   0.73472   1.000
    O972    O    0.97142   0.38784   0.74091   1.000
    O973    O    0.47142   0.38784   0.74091   1.000
    O974    O    0.27649   0.89006   0.74103   1.000
    O975    O    0.77649   0.89006   0.74103   1.000
    O976    O    0.20541   0.88020   0.74334   1.000
    O977    O    0.70542   0.88020   0.74334   1.000
    O978    O    0.04241   0.37743   0.74344   1.000
    O979    O    0.54242   0.37743   0.74344   1.000
    O980    O    0.33367   0.38395   0.75052   1.000
    O981    O    0.83367   0.38395   0.75052   1.000
    O982    O    0.41414   0.88415   0.75113   1.000
    O983    O    0.91415   0.88415   0.75113   1.000
    O984    O    0.26604   0.76610   0.75706   1.000
    O985    O    0.28264   0.71577   0.75893   1.000
    O986    O    0.76605   0.76610   0.75706   1.000
    O987    O    0.78264   0.71577   0.75893   1.000
    O988    O    0.98375   0.26344   0.75721   1.000
    O989    O    0.96723   0.21345   0.75932   1.000
    O990    O    0.48375   0.26344   0.75721   1.000
    O991    O    0.46722   0.21345   0.75932   1.000
    O992    O    0.79994   0.66150   0.76155   1.000
    O993    O    0.81708   0.60977   0.76413   1.000
    O994    O    0.29993   0.66150   0.76155   1.000
    O995    O    0.31707   0.60977   0.76413   1.000
    O996    O    0.94982   0.15962   0.76224   1.000
    O997    O    0.93241   0.10840   0.76515   1.000
    O998    O    0.44981   0.15962   0.76224   1.000
    O999    O    0.43240   0.10840   0.76515   1.000
    O1000   O    0.83439   0.55557   0.76658   1.000
    O1001   O    0.85078   0.50511   0.76923   1.000
    O1002   O    0.33438   0.55557   0.76658   1.000
    O1003   O    0.35077   0.50511   0.76923   1.000
    O1004   O    0.91475   0.05475   0.76795   1.000
    O1005   O    0.89755   0.00487   0.77088   1.000
    O1006   O    0.41474   0.05475   0.76795   1.000
    O1007   O    0.39754   0.00487   0.77088   1.000
    O1008   O    0.24742   0.83221   0.76392   1.000
    O1009   O    0.25114   0.88282   0.79323   1.000
    O1010   O    0.74742   0.83221   0.76392   1.000
    O1011   O    0.75115   0.88282   0.79323   1.000
    O1012   O    0.00133   0.32944   0.76399   1.000
    O1013   O    0.99652   0.38015   0.79328   1.000
    O1014   O    0.50134   0.32944   0.76399   1.000
    O1015   O    0.49652   0.38015   0.79328   1.000
    O1016   O    0.36133   0.43884   0.77395   1.000
    O1017   O    0.38132   0.37491   0.79392   1.000
    O1018   O    0.86133   0.43884   0.77395   1.000
    O1019   O    0.88132   0.37491   0.79392   1.000
    O1020   O    0.88636   0.93897   0.77517   1.000
    O1021   O    0.86624   0.87507   0.79440   1.000
    O1022   O    0.38635   0.93897   0.77517   1.000
    O1023   O    0.36623   0.87507   0.79440   1.000
    O1024   O    0.77416   0.68446   0.79381   1.000
    O1025   O    0.27416   0.68446   0.79381   1.000
    O1026   O    0.47567   0.18221   0.79437   1.000
    O1027   O    0.97568   0.18221   0.79437   1.000
    O1028   O    0.80849   0.58104   0.79902   1.000
    O1029   O    0.30849   0.58104   0.79902   1.000
    O1030   O    0.44078   0.07982   0.80025   1.000
    O1031   O    0.94079   0.07982   0.80025   1.000
    O1032   O    0.25170   0.70215   0.82354   1.000
    O1033   O    0.26536   0.65570   0.82888   1.000
    O1034   O    0.75171   0.70215   0.82354   1.000
    O1035   O    0.76536   0.65570   0.82888   1.000
    O1036   O    0.99820   0.19956   0.82404   1.000
    O1037   O    0.98431   0.15357   0.82964   1.000
    O1038   O    0.49820   0.19956   0.82404   1.000
    O1039   O    0.48430   0.15357   0.82964   1.000
    O1040   O    0.29943   0.55809   0.83069   1.000
    O1041   O    0.28255   0.60401   0.83152   1.000
    O1042   O    0.79944   0.55809   0.83078   1.000
    O1043   O    0.78255   0.60401   0.83152   1.000
    O1044   O    0.91756   0.35636   0.83222   1.000
    O1045   O    0.41756   0.35636   0.83222   1.000
    O1046   O    0.32983   0.85707   0.83241   1.000
    O1047   O    0.82984   0.85707   0.83241   1.000
    O1048   O    0.94967   0.05699   0.83219   1.000
    O1049   O    0.96683   0.10240   0.83260   1.000
    O1050   O    0.44966   0.05699   0.83219   1.000
    O1051   O    0.46682   0.10240   0.83260   1.000
    O1052   O    0.28236   0.87409   0.83451   1.000
    O1053   O    0.78236   0.87409   0.83451   1.000
    O1054   O    0.96508   0.37210   0.83447   1.000
    O1055   O    0.46507   0.37210   0.83447   1.000
    O1056   O    0.75572   0.62690   0.86406   1.000
    O1057   O    0.25571   0.62690   0.86406   1.000
    O1058   O    0.94447   0.34379   0.86536   1.000
    O1059   O    0.44446   0.34379   0.86536   1.000
    O1060   O    0.49373   0.12484   0.86502   1.000
    O1061   O    0.99373   0.12484   0.86502   1.000
    O1062   O    0.80269   0.84511   0.86542   1.000
    O1063   O    0.30269   0.84511   0.86542   1.000
    O1064   O    0.37800   0.29568   0.89390   1.000
    O1065   O    0.87801   0.29568   0.89390   1.000
    O1066   O    0.86903   0.79565   0.89446   1.000
    O1067   O    0.36903   0.79565   0.89446   1.000
    O1068   O    0.73206   0.62322   0.90543   1.000
    O1069   O    0.23206   0.62322   0.90546   1.000
    O1070   O    0.01723   0.12081   0.90649   1.000
    O1071   O    0.51724   0.12081   0.90649   1.000
    O1072   O    0.42208   0.31290   0.89637   1.000
    O1073   O    0.47218   0.33035   0.90159   1.000
    O1074   O    0.92209   0.31290   0.89637   1.000
    O1075   O    0.97219   0.33036   0.90159   1.000
    O1076   O    0.32484   0.81371   0.89657   1.000
    O1077   O    0.27459   0.83211   0.90138   1.000
    O1078   O    0.82485   0.81371   0.89657   1.000
    O1079   O    0.77460   0.83211   0.90138   1.000
    O1080   O    0.22987   0.84666   0.90787   1.000
    O1081   O    0.72988   0.84666   0.90787   1.000
    O1082   O    0.51674   0.34408   0.90843   1.000
    O1083   O    0.01674   0.34408   0.90843   1.000
    O1084   O    0.89886   0.28259   0.92567   1.000
    O1085   O    0.39885   0.28258   0.92570   1.000
    O1086   O    0.34784   0.78289   0.92606   1.000
    O1087   O    0.84785   0.78289   0.92606   1.000
    O1088   O    0.74726   0.81983   0.93585   1.000
    O1089   O    0.24726   0.81983   0.93585   1.000
    O1090   O    0.99896   0.31766   0.93629   1.000
    O1091   O    0.49914   0.31765   0.93631   1.000
    O1092   O    0.70674   0.61893   0.94612   1.000
    O1093   O    0.20673   0.61894   0.94615   1.000
    O1094   O    0.04249   0.11615   0.94724   1.000
    O1095   O    0.54249   0.11615   0.94724   1.000
    O1096   O    0.88114   0.25589   0.95319   1.000
    O1097   O    0.92560   0.27010   0.96063   1.000
    O1098   O    0.38113   0.25588   0.95323   1.000
    O1099   O    0.42559   0.27010   0.96067   1.000
    O1100   O    0.86535   0.75580   0.95371   1.000
    O1101   O    0.82074   0.77084   0.96078   1.000
    O1102   O    0.36535   0.75580   0.95371   1.000
    O1103   O    0.32073   0.77084   0.96078   1.000
    O1104   O    0.77040   0.78938   0.96576   1.000
    O1105   O    0.72594   0.80748   0.96759   1.000
    O1106   O    0.27039   0.78938   0.96576   1.000
    O1107   O    0.22593   0.80748   0.96759   1.000
    O1108   O    0.97560   0.28771   0.96603   1.000
    O1109   O    0.01994   0.30498   0.96823   1.000
    O1110   O    0.47578   0.28771   0.96605   1.000
    O1111   O    0.52011   0.30497   0.96825   1.000
    O1112   O    0.65137   0.68262   0.97392   1.000
    O1113   O    0.15137   0.68262   0.97392   1.000
    O1114   O    0.59765   0.17891   0.97463   1.000
    O1115   O    0.09763   0.17891   0.97463   1.000
    O1116   O    0.67375   0.63942   0.97609   1.000
    O1117   O    0.69716   0.59037   0.98153   1.000
    O1118   O    0.17375   0.63942   0.97609   1.000
    O1119   O    0.19715   0.59037   0.98153   1.000
    O1120   O    0.57543   0.13618   0.97705   1.000
    O1121   O    0.55220   0.08765   0.98275   1.000
    O1122   O    0.07542   0.13618   0.97705   1.000
    O1123   O    0.05219   0.08764   0.98275   1.000
    O1124   O    0.71631   0.54659   0.98907   1.000
    O1125   O    0.21630   0.54659   0.98907   1.000
    O1126   O    0.53320   0.04433   0.99051   1.000
    O1127   O    0.03320   0.04433   0.99051   1.000
    O1128   O    0.30897   0.86681   0.69990   1.000
    O1129   O    0.34410   0.89933   0.74430   1.000
    O1130   O    0.80897   0.86681   0.69990   1.000
    O1131   O    0.84411   0.89933   0.74430   1.000
    O1132   O    0.19112   0.13208   0.19981   1.000
    O1133   O    0.15603   0.09901   0.24401   1.000
    O1134   O    0.69113   0.13208   0.19981   1.000
    O1135   O    0.65604   0.09901   0.24401   1.000
    O1136   O    0.43987   0.36481   0.69976   1.000
    O1137   O    0.40373   0.39834   0.74382   1.000
    O1138   O    0.93987   0.36481   0.69976   1.000
    O1139   O    0.90374   0.39834   0.74382   1.000
    O1140   O    0.05779   0.63390   0.19958   1.000
    O1141   O    0.09403   0.60113   0.24375   1.000
    O1142   O    0.55779   0.63390   0.19958   1.000
    O1143   O    0.59404   0.60113   0.24375   1.000
loop_
    _geom_bond_atom_site_label_1
    _geom_bond_atom_site_label_2
    _geom_bond_distance
    _geom_bond_site_symmetry_2
    _ccdc_geom_bond_type
    C397   O520      0.60996      .   S
    C399   O520      0.60996      .   S
    C397   O521      0.70617  1_554   S
    C391   O521      0.70617      .   S
    C396   O522      0.60996      .   S
    C398   O522      0.60996      .   S
    C396   O523      0.70617  1_554   S
    C390   O523      0.70617      .   S
    C260   O524      0.60996      .   S
    C262   O524      0.60996      .   S
    C260   O525      0.70616  1_554   S
    C254   O525      0.70616      .   S
    C261   O526      0.60970      .   S
    C263   O526      0.60970      .   S
    C261   O527      0.70616  1_554   S
    C255   O527      0.70616      .   S
    C360   O528      0.54462      .   S
    C122   O528      0.54462      .   S
    C360   O529      0.70292      .   S
    C350   O529      0.70292      .   S
    C360   O530      0.69368      .   S
    C358   O530      0.69368  1_556   S
    C361   O531      0.54462      .   S
    C123   O531      0.54462      .   S
    C361   O532      0.70292      .   S
    C351   O532      0.70292      .   S
    C361   O533      0.69368      .   S
    C359   O533      0.69368  1_556   S
    C224   O534      0.54454      .   S
    C66    O534      0.54454      .   S
    C224   O535      0.70276      .   S
    C214   O535      0.70276      .   S
    C224   O536      0.69361      .   S
    C222   O536      0.69361  1_556   S
    C225   O537      0.54454      .   S
    C67    O537      0.54454      .   S
    C225   O538      0.70275      .   S
    C215   O538      0.70275      .   S
    C225   O539      0.69361      .   S
    C223   O539      0.69361  1_556   S
    C352   O540      0.70261      .   S
    C350   O540      0.70261      .   S
    C352   O541      0.54432      .   S
    C116   O541      0.54432      .   S
    C352   O542      0.69416      .   S
    C354   O542      0.69416  1_556   S
    C353   O543      0.70261      .   S
    C351   O543      0.70261      .   S
    C353   O544      0.54433      .   S
    C117   O544      0.54433      .   S
    C353   O545      0.69416      .   S
    C355   O545      0.69416  1_556   S
    C216   O546      0.70260      .   S
    C214   O546      0.70260      .   S
    C216   O547      0.54381      .   S
    C60    O547      0.54381      .   S
    C216   O548      0.69416      .   S
    C218   O548      0.69416  1_556   S
    C217   O549      0.70261      .   S
    C215   O549      0.70261      .   S
    C217   O550      0.54438      .   S
    C61    O550      0.54438      .   S
    C217   O551      0.69416      .   S
    C219   O551      0.69416  1_556   S
    C350   O552      0.74430      .   S
    C348   O552      0.74430      .   S
    C351   O553      0.74430      .   S
    C349   O553      0.74430      .   S
    C215   O554      0.73659      .   S
    C213   O554      0.73659      .   S
    C214   O555      0.73659      .   S
    C212   O555      0.73659      .   S
    C399   O556      0.70806      .   S
    C401   O556      0.70806      .   S
    C398   O557      0.70806      .   S
    C400   O557      0.70806      .   S
    C263   O558      0.70834      .   S
    C265   O558      0.70834      .   S
    C262   O559      0.70807      .   S
    C264   O559      0.70807      .   S
    C349   O560      0.63192      .   S
    C497   O560      0.63192      .   S
    C349   O561      0.65111      .   S
    C499   O561      0.65111      .   S
    C348   O562      0.63192      .   S
    C496   O562      0.63192      .   S
    C348   O563      0.65110      .   S
    C498   O563      0.65110      .   S
    C213   O564      0.63471      .   S
    C445   O564      0.63471      .   S
    C213   O565      0.65523      .   S
    C447   O565      0.65523      .   S
    C212   O566      0.63471      .   S
    C444   O566      0.63471      .   S
    C212   O567      0.65523      .   S
    C446   O567      0.65523      .   S
    C400   O568      0.70448      .   S
    C402   O568      0.70448      .   S
    C400   O569      0.70334      .   S
    C410   O569      0.70334      .   S
    C401   O570      0.70449      .   S
    C403   O570      0.70449      .   S
    C401   O571      0.70334      .   S
    C411   O571      0.70334      .   S
    C265   O572      0.70439      .   S
    C267   O572      0.70439      .   S
    C265   O573      0.70318      .   S
    C275   O573      0.70318      .   S
    C264   O574      0.70440      .   S
    C266   O574      0.70440      .   S
    C264   O575      0.70340      .   S
    C274   O575      0.70340      .   S
    C138   O576      0.54424      .   S
    C402   O576      0.54424      .   S
    C139   O577      0.54424      .   S
    C403   O577      0.54424      .   S
    C82    O578      0.54419      .   S
    C266   O578      0.54419      .   S
    C83    O579      0.54420      .   S
    C267   O579      0.54420      .   S
    C496   O580      1.01548      .   S
    C24    O580      1.01548      .   S
    C497   O581      1.01548      .   S
    C25    O581      1.01548      .   S
    C87    O582      0.54393      .   S
    C274   O582      0.54393      .   S
    C86    O583      0.54363      .   S
    C275   O583      0.54363  1_655   S
    C445   O584      1.01460      .   S
    C9     O584      1.01460      .   S
    C444   O585      1.01460      .   S
    C8     O585      1.01460      .   S
    C142   O586      0.54391      .   S
    C410   O586      0.54391      .   S
    C143   O587      0.54390      .   S
    C411   O587      0.54390      .   S
    C403   O588      0.69930      .   S
    C405   O588      0.69930      .   S
    C402   O589      0.69930      .   S
    C404   O589      0.69930      .   S
    C498   O590      0.95506      .   S
    C30    O590      0.95506      .   S
    C499   O591      0.95507      .   S
    C31    O591      0.95507      .   S
    C266   O592      0.69935      .   S
    C268   O592      0.69935      .   S
    C267   O593      0.69936      .   S
    C269   O593      0.69936      .   S
    C447   O594      0.95661      .   S
    C15    O594      0.95661      .   S
    C446   O595      0.95661      .   S
    C14    O595      0.95661      .   S
    C275   O596      0.69845      .   S
    C273   O596      0.69845      .   S
    C274   O597      0.69804      .   S
    C272   O597      0.69804      .   S
    C411   O598      0.69803      .   S
    C409   O598      0.69803      .   S
    C410   O599      0.69803      .   S
    C408   O599      0.69803      .   S
    C512   O600      1.05530      .   S
    C25    O600      1.05530      .   S
    C512   O601      0.63220      .   S
    C412   O601      0.63220      .   S
    C513   O602      1.05514  1_655   S
    C24    O602      1.05514      .   S
    C513   O603      0.63220      .   S
    C413   O603      0.63220      .   S
    C404   O604      0.74942      .   S
    C412   O604      0.74942      .   S
    C404   O605      0.70038      .   S
    C406   O605      0.70038      .   S
    C405   O606      0.74943      .   S
    C413   O606      0.74943      .   S
    C405   O607      0.70037      .   S
    C407   O607      0.70037      .   S
    C269   O608      0.74956      .   S
    C277   O608      0.74956      .   S
    C269   O609      0.70033      .   S
    C271   O609      0.70033      .   S
    C268   O610      0.74956      .   S
    C276   O610      0.74956      .   S
    C268   O611      0.70033      .   S
    C270   O611      0.70033      .   S
    C461   O612      1.06062      .   S
    C9     O612      1.06062      .   S
    C461   O613      0.63167      .   S
    C277   O613      0.63167      .   S
    C460   O614      1.06063      .   S
    C8     O614      1.06063      .   S
    C460   O615      0.63166      .   S
    C276   O615      0.63166      .   S
    C273   O616      0.69996      .   S
    C271   O616      0.69996      .   S
    C273   O617      0.74833  1_655   S
    C278   O617      0.74833      .   S
    C272   O618      0.69997      .   S
    C270   O618      0.69997      .   S
    C272   O619      0.74803      .   S
    C279   O619      0.74803      .   S
    C409   O620      0.69988      .   S
    C407   O620      0.69988      .   S
    C409   O621      0.74857      .   S
    C415   O621      0.74857      .   S
    C408   O622      0.69987      .   S
    C406   O622      0.69987      .   S
    C408   O623      0.74857      .   S
    C414   O623      0.74857      .   S
    C25    O624      1.08430      .   S
    C517   O624      1.08430      .   S
    C25    O625      1.00267      .   S
    C427   O625      1.00267      .   S
    C24    O626      1.08430      .   S
    C516   O626      1.08430      .   S
    C24    O627      1.00266      .   S
    C426   O627      1.00266      .   S
    C9     O628      1.07817      .   S
    C465   O628      1.07817      .   S
    C9     O629      1.00141      .   S
    C479   O629      1.00141      .   S
    C8     O630      1.07816      .   S
    C464   O630      1.07816      .   S
    C8     O631      1.00141      .   S
    C478   O631      1.00141      .   S
    C465   O632      0.62937      .   S
    C279   O632      0.62937      .   S
    C464   O633      0.62971      .   S
    C278   O633      0.62971      .   S
    C516   O634      0.62956      .   S
    C414   O634      0.62956      .   S
    C517   O635      0.62956      .   S
    C415   O635      0.62956      .   S
    C30    O636      0.96859      .   S
    C476   O636      0.96859      .   S
    C30    O637      0.95104      .   S
    C494   O637      0.95104      .   S
    C31    O638      0.96859      .   S
    C477   O638      0.96859      .   S
    C31    O639      0.95104      .   S
    C495   O639      0.95104      .   S
    C15    O640      0.93110      .   S
    C425   O640      0.93110  1_565   S
    C15    O641      0.95067      .   S
    C443   O641      0.95067      .   S
    C14    O642      0.93110      .   S
    C424   O642      0.93110  1_565   S
    C14    O643      0.95066      .   S
    C442   O643      0.95066      .   S
    C412   O644      0.64654      .   S
    C514   O644      0.64654      .   S
    C413   O645      0.64654      .   S
    C515   O645      0.64654      .   S
    C276   O646      0.64690      .   S
    C462   O646      0.64690      .   S
    C277   O647      0.64690      .   S
    C463   O647      0.64690      .   S
    C271   O648      0.54367      .   S
    C85    O648      0.54367      .   S
    C270   O649      0.54367      .   S
    C84    O649      0.54367      .   S
    C406   O650      0.54376      .   S
    C140   O650      0.54376      .   S
    C407   O651      0.54375      .   S
    C141   O651      0.54375      .   S
    C279   O652      0.64693      .   S
    C467   O652      0.64693      .   S
    C278   O653      0.64621      .   S
    C466   O653      0.64621      .   S
    C415   O654      0.64626      .   S
    C519   O654      0.64626      .   S
    C414   O655      0.64626      .   S
    C518   O655      0.64626      .   S
    C426   O656      0.63766      .   S
    C176   O656      0.63766      .   S
    C427   O657      0.63765      .   S
    C177   O657      0.63765      .   S
    C479   O658      0.63863      .   S
    C313   O658      0.63863      .   S
    C478   O659      0.63863      .   S
    C312   O659      0.63863      .   S
    C425   O660      0.72971      .   S
    C175   O660      0.72971      .   S
    C424   O661      0.72971      .   S
    C174   O661      0.72971      .   S
    C476   O662      0.64712      .   S
    C310   O662      0.64712      .   S
    C477   O663      0.64712      .   S
    C311   O663      0.64712      .   S
    C99    O664      0.54413      .   S
    C305   O664      0.54413      .   S
    C98    O665      0.54414      .   S
    C304   O665      0.54414      .   S
    C42    O666      0.54409      .   S
    C168   O666      0.54409      .   S
    C43    O667      0.54408      .   S
    C169   O667      0.54408      .   S
    C495   O668      0.99451      .   S
    C28    O668      0.99451      .   S
    C494   O669      0.99440      .   S
    C29    O669      0.99440  1_655   S
    C442   O670      0.99496      .   S
    C12    O670      0.99496      .   S
    C443   O671      0.99495      .   S
    C13    O671      0.99495      .   S
    C514   O672      0.97211      .   S
    C28    O672      0.97211      .   S
    C515   O673      0.97211      .   S
    C29    O673      0.97211      .   S
    C462   O674      0.97223      .   S
    C12    O674      0.97223      .   S
    C463   O675      0.97223      .   S
    C13    O675      0.97223      .   S
    C466   O676      0.97618      .   S
    C10    O676      0.97618      .   S
    C467   O677      0.97618      .   S
    C11    O677      0.97618      .   S
    C519   O678      0.97561      .   S
    C27    O678      0.97561      .   S
    C518   O679      0.97561      .   S
    C26    O679      0.97561      .   S
    C176   O680      0.64276      .   S
    C429   O680      0.64276      .   S
    C176   O681      0.75019      .   S
    C170   O681      0.75019      .   S
    C312   O682      0.63657      .   S
    C480   O682      0.63657      .   S
    C312   O683      0.75092      .   S
    C306   O683      0.75092      .   S
    C313   O684      0.63658      .   S
    C481   O684      0.63658      .   S
    C313   O685      0.75091      .   S
    C307   O685      0.75091      .   S
    C177   O686      0.63659      .   S
    C428   O686      0.63659      .   S
    C177   O687      0.75019      .   S
    C171   O687      0.75019      .   S
    C305   O688      0.70003      .   S
    C307   O688      0.70003      .   S
    C305   O689      0.70110      .   S
    C303   O689      0.70110      .   S
    C304   O690      0.70003      .   S
    C306   O690      0.70003      .   S
    C304   O691      0.70110      .   S
    C302   O691      0.70110      .   S
    C169   O692      0.69973      .   S
    C171   O692      0.69973      .   S
    C169   O693      0.70070      .   S
    C167   O693      0.70070      .   S
    C168   O694      0.69974      .   S
    C170   O694      0.69974      .   S
    C168   O695      0.70070      .   S
    C166   O695      0.70070      .   S
    C310   O696      0.74716      .   S
    C302   O696      0.74716      .   S
    C310   O697      0.63346      .   S
    C474   O697      0.63346      .   S
    C311   O698      0.74716      .   S
    C303   O698      0.74716      .   S
    C311   O699      0.63346      .   S
    C475   O699      0.63346      .   S
    C174   O700      0.74621      .   S
    C166   O700      0.74621      .   S
    C174   O701      0.63342      .   S
    C422   O701      0.63342  1_545   S
    C175   O702      0.74620      .   S
    C167   O702      0.74620      .   S
    C175   O703      0.63342      .   S
    C423   O703      0.63342  1_545   S
    C13    O704      1.01379      .   S
    C481   O704      1.01379      .   S
    C13    O705      0.99084      .   S
    C485   O705      0.99084      .   S
    C12    O706      1.01379      .   S
    C480   O706      1.01379      .   S
    C12    O707      0.99084      .   S
    C484   O707      0.99084      .   S
    C28    O708      1.01150      .   S
    C428   O708      1.01150      .   S
    C28    O709      0.99115      .   S
    C433   O709      0.99115      .   S
    C29    O710      1.01020      .   S
    C429   O710      1.01020  1_455   S
    C29    O711      0.99112  1_655   S
    C432   O711      0.99112      .   S
    C26    O712      1.00547      .   S
    C474   O712      1.00547      .   S
    C26    O713      0.96724      .   S
    C430   O713      0.96724      .   S
    C27    O714      1.00547      .   S
    C475   O714      1.00547      .   S
    C27    O715      0.96724      .   S
    C431   O715      0.96724      .   S
    C11    O716      1.00501      .   S
    C423   O716      1.00501      .   S
    C11    O717      0.96756      .   S
    C483   O717      0.96756      .   S
    C10    O718      1.00501      .   S
    C422   O718      1.00501      .   S
    C10    O719      0.96756      .   S
    C482   O719      0.96756      .   S
    C306   O720      0.69943      .   S
    C308   O720      0.69943      .   S
    C307   O721      0.69943      .   S
    C309   O721      0.69943      .   S
    C170   O722      0.69924      .   S
    C172   O722      0.69924      .   S
    C171   O723      0.69924      .   S
    C173   O723      0.69924      .   S
    C302   O724      0.69984      .   S
    C300   O724      0.69984      .   S
    C303   O725      0.69983      .   S
    C301   O725      0.69983      .   S
    C167   O726      0.70051      .   S
    C165   O726      0.70051      .   S
    C166   O727      0.70051      .   S
    C164   O727      0.70051      .   S
    C308   O728      0.54385      .   S
    C100   O728      0.54385      .   S
    C308   O729      0.70424      .   S
    C298   O729      0.70424      .   S
    C309   O730      0.54385      .   S
    C101   O730      0.54385      .   S
    C309   O731      0.70424      .   S
    C299   O731      0.70424      .   S
    C173   O732      0.54383      .   S
    C44    O732      0.54383      .   S
    C173   O733      0.70417      .   S
    C163   O733      0.70417      .   S
    C172   O734      0.54375      .   S
    C45    O734      0.54375  1_655   S
    C172   O735      0.70418      .   S
    C162   O735      0.70418      .   S
    C301   O736      0.54435      .   S
    C97    O736      0.54435      .   S
    C301   O737      0.70412      .   S
    C299   O737      0.70412      .   S
    C300   O738      0.54435      .   S
    C96    O738      0.54435      .   S
    C300   O739      0.70412      .   S
    C298   O739      0.70412      .   S
    C431   O740      0.64135      .   S
    C179   O740      0.64135      .   S
    C430   O741      0.64136      .   S
    C178   O741      0.64136      .   S
    C483   O742      0.64136      .   S
    C315   O742      0.64136      .   S
    C482   O743      0.64136      .   S
    C314   O743      0.64136      .   S
    C165   O744      0.54388      .   S
    C41    O744      0.54388      .   S
    C165   O745      0.70359      .   S
    C163   O745      0.70359      .   S
    C164   O746      0.54389      .   S
    C40    O746      0.54389      .   S
    C164   O747      0.70358      .   S
    C162   O747      0.70358      .   S
    C485   O748      0.64118      .   S
    C315   O748      0.64118      .   S
    C484   O749      0.64118      .   S
    C314   O749      0.64118      .   S
    C433   O750      0.64129      .   S
    C179   O750      0.64129      .   S
    C432   O751      0.64128      .   S
    C178   O751      0.64128      .   S
    C298   O752      0.70982      .   S
    C296   O752      0.70982      .   S
    C299   O753      0.70981      .   S
    C297   O753      0.70981      .   S
    C163   O754      0.70946      .   S
    C160   O754      0.70946      .   S
    C162   O755      0.70941      .   S
    C161   O755      0.70941  1_655   S
    C315   O756      0.74184      .   S
    C317   O756      0.74184      .   S
    C314   O757      0.74183      .   S
    C316   O757      0.74183      .   S
    C179   O758      0.74165      .   S
    C181   O758      0.74165      .   S
    C178   O759      0.74165      .   S
    C180   O759      0.74165      .   S
    C46    O760      0.54341      .   S
    C182   O760      0.54341      .   S
    C47    O761      0.54340      .   S
    C183   O761      0.54340      .   S
    C103   O762      0.54432      .   S
    C319   O762      0.54432      .   S
    C102   O763      0.54376      .   S
    C318   O763      0.54376      .   S
    C296   O764      0.61061      .   S
    C294   O764      0.61061      .   S
    C297   O765      0.60982      .   S
    C295   O765      0.60982      .   S
    C161   O766      0.61044      .   S
    C159   O766      0.61044      .   S
    C160   O767      0.61044      .   S
    C158   O767      0.61044      .   S
    C316   O768      0.70278      .   S
    C318   O768      0.70278      .   S
    C316   O769      0.70191      .   S
    C326   O769      0.70191      .   S
    C317   O770      0.70293      .   S
    C319   O770      0.70293      .   S
    C317   O771      0.70191      .   S
    C327   O771      0.70191      .   S
    C181   O772      0.70266      .   S
    C183   O772      0.70266      .   S
    C181   O773      0.70183      .   S
    C191   O773      0.70183      .   S
    C180   O774      0.70266      .   S
    C182   O774      0.70266      .   S
    C180   O775      0.70183      .   S
    C190   O775      0.70183      .   S
    C108   O776      0.54471      .   S
    C326   O776      0.54471      .   S
    C109   O777      0.54470      .   S
    C327   O777      0.54470      .   S
    C53    O778      0.54459      .   S
    C190   O778      0.54459  1_455   S
    C52    O779      0.54472      .   S
    C191   O779      0.54472      .   S
    C182   O780      0.69273      .   S
    C184   O780      0.69273      .   S
    C183   O781      0.69273      .   S
    C185   O781      0.69273      .   S
    C318   O782      0.69236      .   S
    C320   O782      0.69236      .   S
    C319   O783      0.69198      .   S
    C321   O783      0.69198      .   S
    C327   O784      0.69483      .   S
    C325   O784      0.69483      .   S
    C326   O785      0.69483      .   S
    C324   O785      0.69483      .   S
    C191   O786      0.69472      .   S
    C189   O786      0.69472      .   S
    C190   O787      0.69472  1_455   S
    C188   O787      0.69472      .   S
    C295   O788      0.70911      .   S
    C289   O788      0.70911      .   S
    C294   O789      0.70834      .   S
    C288   O789      0.70834      .   S
    C159   O790      0.70797      .   S
    C153   O790      0.70797      .   S
    C158   O791      0.70797      .   S
    C152   O791      0.70797      .   S
    C320   O792      0.54459      .   S
    C104   O792      0.54459      .   S
    C320   O793      0.70664      .   S
    C322   O793      0.70664      .   S
    C321   O794      0.54460      .   S
    C105   O794      0.54460      .   S
    C321   O795      0.70663      .   S
    C323   O795      0.70663      .   S
    C184   O796      0.54464      .   S
    C48    O796      0.54464      .   S
    C184   O797      0.70627      .   S
    C186   O797      0.70627      .   S
    C185   O798      0.54463      .   S
    C49    O798      0.54463      .   S
    C185   O799      0.70627      .   S
    C187   O799      0.70627      .   S
    C324   O800      0.70678      .   S
    C322   O800      0.70678      .   S
    C324   O801      0.54468      .   S
    C106   O801      0.54468      .   S
    C325   O802      0.70678      .   S
    C323   O802      0.70678      .   S
    C325   O803      0.54468      .   S
    C107   O803      0.54468      .   S
    C189   O804      0.70659      .   S
    C187   O804      0.70659      .   S
    C189   O805      0.54472      .   S
    C50    O805      0.54472      .   S
    C188   O806      0.70660  1_655   S
    C186   O806      0.70660      .   S
    C188   O807      0.54460      .   S
    C51    O807      0.54460      .   S
    C36    O808      0.54450      .   S
    C154   O808      0.54450      .   S
    C37    O809      0.54450      .   S
    C155   O809      0.54450      .   S
    C93    O810      0.54454      .   S
    C291   O810      0.54454      .   S
    C92    O811      0.54455      .   S
    C290   O811      0.54455      .   S
    C289   O812      0.70711      .   S
    C291   O812      0.70711      .   S
    C289   O813      0.70693      .   S
    C287   O813      0.70693      .   S
    C288   O814      0.70710      .   S
    C290   O814      0.70710      .   S
    C288   O815      0.70692      .   S
    C286   O815      0.70692      .   S
    C153   O816      0.70704      .   S
    C155   O816      0.70704      .   S
    C153   O817      0.70684      .   S
    C151   O817      0.70684      .   S
    C152   O818      0.70704      .   S
    C154   O818      0.70704      .   S
    C152   O819      0.70684      .   S
    C150   O819      0.70684      .   S
    C322   O820      0.70631      .   S
    C328   O820      0.70631      .   S
    C323   O821      0.70631      .   S
    C329   O821      0.70631      .   S
    C186   O822      0.70654      .   S
    C192   O822      0.70654      .   S
    C187   O823      0.70654      .   S
    C193   O823      0.70654      .   S
    C91    O824      0.54469      .   S
    C287   O824      0.54469      .   S
    C90    O825      0.54469      .   S
    C286   O825      0.54469      .   S
    C291   O826      0.69393      .   S
    C293   O826      0.69393      .   S
    C290   O827      0.69393      .   S
    C292   O827      0.69393      .   S
    C155   O828      0.69381      .   S
    C157   O828      0.69381      .   S
    C154   O829      0.69381      .   S
    C156   O829      0.69381      .   S
    C34    O830      0.54471      .   S
    C150   O830      0.54471      .   S
    C35    O831      0.54471      .   S
    C151   O831      0.54471      .   S
    C287   O832      0.69424      .   S
    C285   O832      0.69424      .   S
    C286   O833      0.69425      .   S
    C284   O833      0.69425      .   S
    C151   O834      0.69400      .   S
    C149   O834      0.69400      .   S
    C150   O835      0.69400      .   S
    C148   O835      0.69400      .   S
    C328   O836      0.60913      .   S
    C330   O836      0.60913      .   S
    C329   O837      0.60913      .   S
    C331   O837      0.60913      .   S
    C192   O838      0.60971      .   S
    C194   O838      0.60971      .   S
    C193   O839      0.60971      .   S
    C195   O839      0.60971      .   S
    C293   O840      0.54464      .   S
    C95    O840      0.54464      .   S
    C293   O841      0.70291      .   S
    C283   O841      0.70291      .   S
    C292   O842      0.54445      .   S
    C94    O842      0.54445      .   S
    C292   O843      0.70290      .   S
    C282   O843      0.70290      .   S
    C156   O844      0.54459      .   S
    C38    O844      0.54459      .   S
    C156   O845      0.70277      .   S
    C146   O845      0.70277      .   S
    C157   O846      0.54460      .   S
    C39    O846      0.54460      .   S
    C157   O847      0.70277      .   S
    C147   O847      0.70277      .   S
    C285   O848      0.70263      .   S
    C283   O848      0.70263      .   S
    C285   O849      0.54431      .   S
    C89    O849      0.54431      .   S
    C284   O850      0.70262      .   S
    C282   O850      0.70262      .   S
    C284   O851      0.54431      .   S
    C88    O851      0.54431      .   S
    C148   O852      0.70266      .   S
    C146   O852      0.70266      .   S
    C148   O853      0.54273      .   S
    C32    O853      0.54273      .   S
    C149   O854      0.70267      .   S
    C147   O854      0.70267      .   S
    C149   O855      0.54432      .   S
    C33    O855      0.54432      .   S
    C282   O856      0.74452      .   S
    C280   O856      0.74452      .   S
    C283   O857      0.74452      .   S
    C281   O857      0.74452      .   S
    C147   O858      0.74408      .   S
    C145   O858      0.74408      .   S
    C146   O859      0.74408      .   S
    C144   O859      0.74408      .   S
    C331   O860      0.70888      .   S
    C333   O860      0.70888      .   S
    C330   O861      0.70888      .   S
    C332   O861      0.70888      .   S
    C194   O862      0.70775      .   S
    C196   O862      0.70775      .   S
    C195   O863      0.70776      .   S
    C197   O863      0.70776      .   S
    C280   O864      0.63196      .   S
    C470   O864      0.63196      .   S
    C280   O865      0.65115      .   S
    C472   O865      0.65115      .   S
    C281   O866      0.63196      .   S
    C471   O866      0.63196      .   S
    C281   O867      0.65115      .   S
    C473   O867      0.65115      .   S
    C144   O868      0.63218      .   S
    C418   O868      0.63218      .   S
    C144   O869      0.65057      .   S
    C420   O869      0.65057      .   S
    C145   O870      0.63217      .   S
    C419   O870      0.63217      .   S
    C145   O871      0.65057      .   S
    C421   O871      0.65057      .   S
    C332   O872      0.70439      .   S
    C334   O872      0.70439      .   S
    C332   O873      0.70344      .   S
    C342   O873      0.70344      .   S
    C333   O874      0.70440      .   S
    C335   O874      0.70440      .   S
    C333   O875      0.70344      .   S
    C343   O875      0.70344      .   S
    C197   O876      0.70436      .   S
    C199   O876      0.70436      .   S
    C197   O877      0.70340      .   S
    C207   O877      0.70340      .   S
    C196   O878      0.70437      .   S
    C198   O878      0.70437      .   S
    C196   O879      0.70340      .   S
    C206   O879      0.70340      .   S
    C111   O880      0.54419      .   S
    C335   O880      0.54419      .   S
    C110   O881      0.54419      .   S
    C334   O881      0.54419      .   S
    C55    O882      0.54424      .   S
    C199   O882      0.54424      .   S
    C54    O883      0.54424      .   S
    C198   O883      0.54424      .   S
    C470   O884      1.01742      .   S
    C16    O884      1.01742      .   S
    C471   O885      1.01742      .   S
    C17    O885      1.01742      .   S
    C115   O886      0.54438      .   S
    C343   O886      0.54438      .   S
    C114   O887      0.54438      .   S
    C342   O887      0.54438      .   S
    C418   O888      1.01625      .   S
    C0     O888      1.01625      .   S
    C419   O889      1.01625      .   S
    C1     O889      1.01625      .   S
    C58    O890      0.54393      .   S
    C207   O890      0.54393      .   S
    C59    O891      0.54380      .   S
    C206   O891      0.54380  1_455   S
    C334   O892      0.69824      .   S
    C336   O892      0.69824      .   S
    C335   O893      0.69824      .   S
    C337   O893      0.69824      .   S
    C472   O894      0.95482      .   S
    C22    O894      0.95482      .   S
    C473   O895      0.95482      .   S
    C23    O895      0.95482      .   S
    C198   O896      0.69922      .   S
    C200   O896      0.69922      .   S
    C199   O897      0.69923      .   S
    C201   O897      0.69923      .   S
    C420   O898      0.95589      .   S
    C6     O898      0.95589      .   S
    C421   O899      0.95589      .   S
    C7     O899      0.95589      .   S
    C343   O900      0.69783      .   S
    C341   O900      0.69783      .   S
    C342   O901      0.69783      .   S
    C340   O901      0.69783      .   S
    C207   O902      0.69778      .   S
    C205   O902      0.69778      .   S
    C206   O903      0.69778      .   S
    C204   O903      0.69778      .   S
    C337   O904      0.74969      .   S
    C345   O904      0.74969      .   S
    C337   O905      0.70043      .   S
    C339   O905      0.70043      .   S
    C336   O906      0.74969      .   S
    C344   O906      0.74969      .   S
    C336   O907      0.70044      .   S
    C338   O907      0.70044      .   S
    C486   O908      1.05542  1_455   S
    C17    O908      1.05542      .   S
    C486   O909      0.63192      .   S
    C344   O909      0.63192      .   S
    C487   O910      1.05557      .   S
    C16    O910      1.05557      .   S
    C487   O911      0.63192      .   S
    C345   O911      0.63192      .   S
    C435   O912      1.06077      .   S
    C1     O912      1.06077      .   S
    C435   O913      0.63162      .   S
    C209   O913      0.63162      .   S
    C434   O914      1.06076      .   S
    C0     O914      1.06076      .   S
    C434   O915      0.63163      .   S
    C208   O915      0.63163      .   S
    C201   O916      0.74916      .   S
    C209   O916      0.74916      .   S
    C201   O917      0.70028      .   S
    C203   O917      0.70028      .   S
    C200   O918      0.74916      .   S
    C208   O918      0.74916      .   S
    C200   O919      0.70028      .   S
    C202   O919      0.70028      .   S
    C341   O920      0.69954      .   S
    C339   O920      0.69954      .   S
    C341   O921      0.74821      .   S
    C347   O921      0.74821      .   S
    C340   O922      0.69953      .   S
    C338   O922      0.69953      .   S
    C340   O923      0.74821      .   S
    C346   O923      0.74821      .   S
    C204   O924      0.69983      .   S
    C202   O924      0.69983      .   S
    C204   O925      0.74792  1_455   S
    C211   O925      0.74792      .   S
    C205   O926      0.69983      .   S
    C203   O926      0.69983      .   S
    C205   O927      0.74804      .   S
    C210   O927      0.74804      .   S
    C1     O928      1.07856      .   S
    C439   O928      1.07856      .   S
    C1     O929      0.99909      .   S
    C505   O929      0.99909      .   S
    C0     O930      1.07857      .   S
    C438   O930      1.07857      .   S
    C0     O931      0.99909      .   S
    C504   O931      0.99909      .   S
    C17    O932      1.07976      .   S
    C491   O932      1.07976      .   S
    C17    O933      0.99917      .   S
    C453   O933      0.99917      .   S
    C16    O934      1.07976      .   S
    C490   O934      1.07976      .   S
    C16    O935      0.99917      .   S
    C452   O935      0.99917      .   S
    C491   O936      0.62971      .   S
    C347   O936      0.62971      .   S
    C490   O937      0.62971      .   S
    C346   O937      0.62971      .   S
    C439   O938      0.62977      .   S
    C211   O938      0.62977      .   S
    C438   O939      0.62977      .   S
    C210   O939      0.62977      .   S
    C22    O940      0.96939      .   S
    C502   O940      0.96939      .   S
    C22    O941      0.94949      .   S
    C468   O941      0.94949      .   S
    C23    O942      0.96939      .   S
    C503   O942      0.96939      .   S
    C23    O943      0.94948      .   S
    C469   O943      0.94948      .   S
    C6     O944      0.96805      .   S
    C450   O944      0.96805  1_545   S
    C6     O945      0.94701      .   S
    C416   O945      0.94701      .   S
    C7     O946      0.96806      .   S
    C451   O946      0.96806  1_545   S
    C7     O947      0.94701      .   S
    C417   O947      0.94701      .   S
    C209   O948      0.64688      .   S
    C437   O948      0.64688      .   S
    C208   O949      0.64688      .   S
    C436   O949      0.64688      .   S
    C345   O950      0.64664      .   S
    C489   O950      0.64664      .   S
    C344   O951      0.64664      .   S
    C488   O951      0.64664      .   S
    C338   O952      0.54438      .   S
    C112   O952      0.54438      .   S
    C339   O953      0.54438      .   S
    C113   O953      0.54438      .   S
    C202   O954      0.53579      .   S
    C56    O954      0.53579      .   S
    C203   O955      0.53579      .   S
    C57    O955      0.53579      .   S
    C346   O956      0.64603      .   S
    C492   O956      0.64603      .   S
    C347   O957      0.64604      .   S
    C493   O957      0.64604      .   S
    C210   O958      0.64617      .   S
    C440   O958      0.64617      .   S
    C211   O959      0.64618      .   S
    C441   O959      0.64618      .   S
    C505   O960      0.63791      .   S
    C381   O960      0.63791      .   S
    C504   O961      0.63791      .   S
    C380   O961      0.63791      .   S
    C452   O962      0.63798      .   S
    C244   O962      0.63798      .   S
    C453   O963      0.63798      .   S
    C245   O963      0.63798      .   S
    C503   O964      0.64723      .   S
    C379   O964      0.64723      .   S
    C502   O965      0.64723      .   S
    C378   O965      0.64723      .   S
    C451   O966      0.64714      .   S
    C243   O966      0.64714      .   S
    C450   O967      0.64714      .   S
    C242   O967      0.64714      .   S
    C126   O968      0.54403      .   S
    C372   O968      0.54403      .   S
    C127   O969      0.54403      .   S
    C373   O969      0.54403      .   S
    C70    O970      0.55337      .   S
    C236   O970      0.55337      .   S
    C71    O971      0.55337      .   S
    C237   O971      0.55337      .   S
    C469   O972      0.99187      .   S
    C20    O972      0.99187  1_455   S
    C468   O973      0.99198      .   S
    C21    O973      0.99198      .   S
    C416   O974      0.99356      .   S
    C4     O974      0.99356      .   S
    C417   O975      0.99356      .   S
    C5     O975      0.99356      .   S
    C436   O976      0.97094      .   S
    C4     O976      0.97094      .   S
    C437   O977      0.97094      .   S
    C5     O977      0.97094      .   S
    C488   O978      0.97274      .   S
    C20    O978      0.97274      .   S
    C489   O979      0.97275      .   S
    C21    O979      0.97275      .   S
    C492   O980      0.97491      .   S
    C18    O980      0.97491      .   S
    C493   O981      0.97491      .   S
    C19    O981      0.97491      .   S
    C440   O982      0.97437      .   S
    C2     O982      0.97437      .   S
    C441   O983      0.97437      .   S
    C3     O983      0.97437      .   S
    C380   O984      0.63626      .   S
    C506   O984      0.63626      .   S
    C380   O985      0.75034      .   S
    C374   O985      0.75034      .   S
    C381   O986      0.63626      .   S
    C507   O986      0.63626      .   S
    C381   O987      0.75033      .   S
    C375   O987      0.75033      .   S
    C245   O988      0.63635      .   S
    C454   O988      0.63635      .   S
    C245   O989      0.75089      .   S
    C239   O989      0.75089      .   S
    C244   O990      0.63642      .   S
    C455   O990      0.63642      .   S
    C244   O991      0.75089      .   S
    C238   O991      0.75089      .   S
    C373   O992      0.69980      .   S
    C375   O992      0.69980      .   S
    C373   O993      0.70071      .   S
    C371   O993      0.70071      .   S
    C372   O994      0.69980      .   S
    C374   O994      0.69980      .   S
    C372   O995      0.70071      .   S
    C370   O995      0.70071      .   S
    C237   O996      0.70002      .   S
    C239   O996      0.70002      .   S
    C237   O997      0.70114      .   S
    C235   O997      0.70114      .   S
    C236   O998      0.70002      .   S
    C238   O998      0.70002      .   S
    C236   O999      0.70114      .   S
    C234   O999      0.70114      .   S
    C379   O1000     0.74677      .   S
    C371   O1000     0.74677      .   S
    C379   O1001     0.63338      .   S
    C501   O1001     0.63338      .   S
    C378   O1002     0.74677      .   S
    C370   O1002     0.74677      .   S
    C378   O1003     0.63338      .   S
    C500   O1003     0.63338      .   S
    C243   O1004     0.74683      .   S
    C235   O1004     0.74683      .   S
    C243   O1005     0.63352      .   S
    C449   O1005     0.63352  1_565   S
    C242   O1006     0.74684      .   S
    C234   O1006     0.74684      .   S
    C242   O1007     0.63352      .   S
    C448   O1007     0.63352  1_565   S
    C4     O1008     1.01368      .   S
    C506   O1008     1.01368      .   S
    C4     O1009     0.99090      .   S
    C510   O1009     0.99090      .   S
    C5     O1010     1.01369      .   S
    C507   O1010     1.01369      .   S
    C5     O1011     0.99091      .   S
    C511   O1011     0.99091      .   S
    C20    O1012     1.01514      .   S
    C454   O1012     1.01514  1_655   S
    C20    O1013     0.99109  1_455   S
    C459   O1013     0.99109      .   S
    C21    O1014     1.01514      .   S
    C455   O1014     1.01514      .   S
    C21    O1015     0.99112      .   S
    C458   O1015     0.99112      .   S
    C18    O1016     1.00282      .   S
    C500   O1016     1.00282      .   S
    C18    O1017     0.96833      .   S
    C456   O1017     0.96833      .   S
    C19    O1018     1.00282      .   S
    C501   O1018     1.00282      .   S
    C19    O1019     0.96833      .   S
    C457   O1019     0.96833      .   S
    C3     O1020     1.00833      .   S
    C449   O1020     1.00833      .   S
    C3     O1021     0.96844      .   S
    C509   O1021     0.96844      .   S
    C2     O1022     1.00833      .   S
    C448   O1022     1.00833      .   S
    C2     O1023     0.96844      .   S
    C508   O1023     0.96844      .   S
    C375   O1024     0.69949      .   S
    C377   O1024     0.69949      .   S
    C374   O1025     0.69949      .   S
    C376   O1025     0.69949      .   S
    C238   O1026     0.69942      .   S
    C240   O1026     0.69942      .   S
    C239   O1027     0.69942      .   S
    C241   O1027     0.69942      .   S
    C371   O1028     0.70063      .   S
    C369   O1028     0.70063      .   S
    C370   O1029     0.70063      .   S
    C368   O1029     0.70063      .   S
    C234   O1030     0.70024      .   S
    C232   O1030     0.70024      .   S
    C235   O1031     0.70024      .   S
    C233   O1031     0.70024      .   S
    C376   O1032     0.54382      .   S
    C128   O1032     0.54382      .   S
    C376   O1033     0.70420      .   S
    C366   O1033     0.70420      .   S
    C377   O1034     0.54383      .   S
    C129   O1034     0.54383      .   S
    C377   O1035     0.70420      .   S
    C367   O1035     0.70420      .   S
    C241   O1036     0.54383      .   S
    C72    O1036     0.54383  1_455   S
    C241   O1037     0.70423      .   S
    C231   O1037     0.70423      .   S
    C240   O1038     0.54390      .   S
    C73    O1038     0.54390      .   S
    C240   O1039     0.70424      .   S
    C230   O1039     0.70424      .   S
    C368   O1040     0.54246      .   S
    C124   O1040     0.54246      .   S
    C368   O1041     0.70375      .   S
    C366   O1041     0.70375      .   S
    C369   O1042     0.54386      .   S
    C125   O1042     0.54386      .   S
    C369   O1043     0.70375      .   S
    C367   O1043     0.70375      .   S
    C457   O1044     0.64138      .   S
    C247   O1044     0.64138      .   S
    C456   O1045     0.64138      .   S
    C246   O1045     0.64138      .   S
    C508   O1046     0.64165      .   S
    C382   O1046     0.64165      .   S
    C509   O1047     0.64164      .   S
    C383   O1047     0.64164      .   S
    C233   O1048     0.54396      .   S
    C69    O1048     0.54396      .   S
    C233   O1049     0.70378      .   S
    C231   O1049     0.70378      .   S
    C232   O1050     0.54396      .   S
    C68    O1050     0.54396      .   S
    C232   O1051     0.70377      .   S
    C230   O1051     0.70377      .   S
    C510   O1052     0.64125      .   S
    C382   O1052     0.64125      .   S
    C511   O1053     0.64125      .   S
    C383   O1053     0.64125      .   S
    C459   O1054     0.64126      .   S
    C247   O1054     0.64126      .   S
    C458   O1055     0.64126      .   S
    C246   O1055     0.64126      .   S
    C367   O1056     0.70971      .   S
    C365   O1056     0.70971      .   S
    C366   O1057     0.70972      .   S
    C364   O1057     0.70972      .   S
    C247   O1058     0.74193      .   S
    C249   O1058     0.74193      .   S
    C246   O1059     0.74195      .   S
    C248   O1059     0.74195      .   S
    C230   O1060     0.70951      .   S
    C229   O1060     0.70951      .   S
    C231   O1061     0.70945      .   S
    C228   O1061     0.70945  1_455   S
    C383   O1062     0.74184      .   S
    C385   O1062     0.74184      .   S
    C382   O1063     0.74184      .   S
    C384   O1063     0.74184      .   S
    C74    O1064     0.54404      .   S
    C250   O1064     0.54404      .   S
    C75    O1065     0.54404      .   S
    C251   O1065     0.54404      .   S
    C131   O1066     0.54404      .   S
    C387   O1066     0.54404      .   S
    C130   O1067     0.54405      .   S
    C386   O1067     0.54405      .   S
    C365   O1068     0.60999      .   S
    C363   O1068     0.60999      .   S
    C364   O1069     0.61078      .   S
    C362   O1069     0.61078      .   S
    C228   O1070     0.61061      .   S
    C226   O1070     0.61061      .   S
    C229   O1071     0.61061      .   S
    C227   O1071     0.61061      .   S
    C248   O1072     0.70300      .   S
    C250   O1072     0.70300      .   S
    C248   O1073     0.70192      .   S
    C258   O1073     0.70192      .   S
    C249   O1074     0.70299      .   S
    C251   O1074     0.70299      .   S
    C249   O1075     0.70193      .   S
    C259   O1075     0.70193      .   S
    C384   O1076     0.70295      .   S
    C386   O1076     0.70295      .   S
    C384   O1077     0.70203      .   S
    C394   O1077     0.70203      .   S
    C385   O1078     0.70296      .   S
    C387   O1078     0.70296      .   S
    C385   O1079     0.70203      .   S
    C395   O1079     0.70203      .   S
    C136   O1080     0.54472      .   S
    C394   O1080     0.54472      .   S
    C137   O1081     0.54471      .   S
    C395   O1081     0.54471      .   S
    C81    O1082     0.54472      .   S
    C258   O1082     0.54472      .   S
    C80    O1083     0.54460      .   S
    C259   O1083     0.54460  1_655   S
    C251   O1084     0.69102      .   S
    C253   O1084     0.69102      .   S
    C250   O1085     0.69194      .   S
    C252   O1085     0.69194      .   S
    C386   O1086     0.69187      .   S
    C388   O1086     0.69187      .   S
    C387   O1087     0.69187      .   S
    C389   O1087     0.69187      .   S
    C395   O1088     0.69477      .   S
    C393   O1088     0.69477      .   S
    C394   O1089     0.69476      .   S
    C392   O1089     0.69476      .   S
    C259   O1090     0.69402      .   S
    C257   O1090     0.69402  1_455   S
    C258   O1091     0.69468      .   S
    C256   O1091     0.69468      .   S
    C363   O1092     0.70894      .   S
    C357   O1092     0.70894      .   S
    C362   O1093     0.70816      .   S
    C356   O1093     0.70816      .   S
    C226   O1094     0.70796      .   S
    C220   O1094     0.70796      .   S
    C227   O1095     0.70796      .   S
    C221   O1095     0.70796      .   S
    C253   O1096     0.54497      .   S
    C77    O1096     0.54497      .   S
    C253   O1097     0.70723      .   S
    C255   O1097     0.70723      .   S
    C252   O1098     0.54463      .   S
    C76    O1098     0.54463      .   S
    C252   O1099     0.70666      .   S
    C254   O1099     0.70666      .   S
    C389   O1100     0.54462      .   S
    C133   O1100     0.54462      .   S
    C389   O1101     0.70672      .   S
    C391   O1101     0.70672      .   S
    C388   O1102     0.54463      .   S
    C132   O1102     0.54463      .   S
    C388   O1103     0.70671      .   S
    C390   O1103     0.70671      .   S
    C393   O1104     0.70678      .   S
    C391   O1104     0.70678      .   S
    C393   O1105     0.54475      .   S
    C135   O1105     0.54475      .   S
    C392   O1106     0.70678      .   S
    C390   O1106     0.70678      .   S
    C392   O1107     0.54475      .   S
    C134   O1107     0.54475      .   S
    C257   O1108     0.70384  1_455   S
    C255   O1108     0.70384      .   S
    C257   O1109     0.54827      .   S
    C78    O1109     0.54827      .   S
    C256   O1110     0.70683      .   S
    C254   O1110     0.70683      .   S
    C256   O1111     0.54475      .   S
    C79    O1111     0.54475      .   S
    C121   O1112     0.54462      .   S
    C359   O1112     0.54462      .   S
    C120   O1113     0.54462      .   S
    C358   O1113     0.54462      .   S
    C65    O1114     0.54456      .   S
    C223   O1114     0.54456      .   S
    C64    O1115     0.54458      .   S
    C222   O1115     0.54458      .   S
    C357   O1116     0.70711      .   S
    C359   O1116     0.70711      .   S
    C357   O1117     0.70694      .   S
    C355   O1117     0.70694      .   S
    C356   O1118     0.70711      .   S
    C358   O1118     0.70711      .   S
    C356   O1119     0.70695      .   S
    C354   O1119     0.70695      .   S
    C221   O1120     0.70704      .   S
    C223   O1120     0.70704      .   S
    C221   O1121     0.70685      .   S
    C219   O1121     0.70685      .   S
    C220   O1122     0.70704      .   S
    C222   O1122     0.70704      .   S
    C220   O1123     0.70686      .   S
    C218   O1123     0.70686      .   S
    C119   O1124     0.54461      .   S
    C355   O1124     0.54461      .   S
    C118   O1125     0.54461      .   S
    C354   O1125     0.54461      .   S
    C63    O1126     0.54450      .   S
    C219   O1126     0.54450      .   S
    C62    O1127     0.54450      .   S
    C218   O1127     0.54450      .   S
    C416   O1128     1.02380      .   S
    C0     O1128     1.02380      .   S
    C416   O1129     1.00128      .   S
    C2     O1129     1.00128      .   S
    C417   O1130     1.02380      .   S
    C1     O1130     1.02380      .   S
    C417   O1131     1.00128      .   S
    C3     O1131     1.00128      .   S
    C442   O1132     1.02462      .   S
    C8     O1132     1.02462      .   S
    C442   O1133     1.00085      .   S
    C10    O1133     1.00085      .   S
    C443   O1134     1.02461      .   S
    C9     O1134     1.02461      .   S
    C443   O1135     1.00086      .   S
    C11    O1135     1.00086      .   S
    C468   O1136     1.02578      .   S
    C16    O1136     1.02578      .   S
    C468   O1137     1.00169      .   S
    C18    O1137     1.00169      .   S
    C469   O1138     1.02578      .   S
    C17    O1138     1.02578      .   S
    C469   O1139     1.00169      .   S
    C19    O1139     1.00169      .   S
    C494   O1140     1.02197      .   S
    C24    O1140     1.02197      .   S
    C494   O1141     1.00149      .   S
    C26    O1141     1.00149      .   S
    C495   O1142     1.02197      .   S
    C25    O1142     1.02197      .   S
    C495   O1143     1.00149      .   S
    C27    O1143     1.00149      .   S
