# CIF file generated by openbabel 2.4.90, see http://openbabel.sf.net
data_I
_chemical_name_common ''
_cell_length_a 21.511
_cell_length_b 12.442
_cell_length_c 26.091
_cell_angle_alpha 91.126
_cell_angle_beta 89.998
_cell_angle_gamma 89.989
_space_group_name_H-M_alt 'P 1'
_space_group_name_Hall 'P 1'
loop_
    _symmetry_equiv_pos_as_xyz
    x,y,z
loop_
    _atom_site_label
    _atom_site_type_symbol
    _atom_site_fract_x
    _atom_site_fract_y
    _atom_site_fract_z
    _atom_site_occupancy
    H0      H    0.31331   0.98395   0.16189   1.000
    H1      H    0.81214   0.98429   0.16187   1.000
    H2      H    0.18254   0.95600   0.20738   1.000
    H3      H    0.68143   0.95578   0.20739   1.000
    H4      H    0.17459   0.86431   0.28630   1.000
    H5      H    0.67353   0.86413   0.28626   1.000
    H6      H    0.22000   0.78025   0.36260   1.000
    H7      H    0.71894   0.78018   0.36260   1.000
    H8      H    0.40312   0.86561   0.31006   1.000
    H9      H    0.90204   0.86593   0.31015   1.000
    H10     H    0.35783   0.94864   0.23377   1.000
    H11     H    0.85674   0.94882   0.23382   1.000
    H12     H    0.26910   0.69408   0.42554   1.000
    H13     H    0.76802   0.69416   0.42558   1.000
    H14     H    0.39644   0.77001   0.38586   1.000
    H15     H    0.89536   0.77028   0.38596   1.000
    H16     H    0.34937   0.18228   0.50813   1.000
    H17     H    0.84886   0.18174   0.50796   1.000
    H18     H    0.48093   0.27083   0.52985   1.000
    H19     H    0.98026   0.27078   0.52981   1.000
    H20     H    0.06462   0.15607   0.52730   1.000
    H21     H    0.56500   0.15554   0.52730   1.000
    H22     H    0.38581   0.02151   0.48942   1.000
    H23     H    0.88576   0.02057   0.48930   1.000
    H24     H    0.31318   0.51592   0.33794   1.000
    H25     H    0.81229   0.51567   0.33810   1.000
    H26     H    0.18231   0.54413   0.29268   1.000
    H27     H    0.68157   0.54438   0.29265   1.000
    H28     H    0.17426   0.63607   0.21377   1.000
    H29     H    0.67365   0.63638   0.21387   1.000
    H30     H    0.21962   0.72001   0.13739   1.000
    H31     H    0.71902   0.72027   0.13700   1.000
    H32     H    0.40274   0.63375   0.18965   1.000
    H33     H    0.90211   0.63366   0.18969   1.000
    H34     H    0.35750   0.55082   0.26598   1.000
    H35     H    0.85685   0.55081   0.26600   1.000
    H36     H    0.26880   0.80588   0.07430   1.000
    H37     H    0.76806   0.80591   0.07440   1.000
    H38     H    0.39608   0.72965   0.11402   1.000
    H39     H    0.89541   0.72965   0.11398   1.000
    H40     H    0.34936   0.31775   0.99207   1.000
    H41     H    0.84891   0.31831   0.99203   1.000
    H42     H    0.48098   0.22888   0.97082   1.000
    H43     H    0.98032   0.22926   0.97013   1.000
    H44     H    0.06466   0.34394   0.97271   1.000
    H45     H    0.56499   0.34431   0.97278   1.000
    H46     H    0.38585   0.47858   0.01084   1.000
    H47     H    0.88575   0.47951   0.01055   1.000
    H48     H    0.18788   0.01576   0.83800   1.000
    H49     H    0.68671   0.01610   0.83807   1.000
    H50     H    0.31859   0.04427   0.79258   1.000
    H51     H    0.81748   0.04405   0.79250   1.000
    H52     H    0.32649   0.13592   0.71371   1.000
    H53     H    0.82543   0.13574   0.71367   1.000
    H54     H    0.28108   0.21987   0.63735   1.000
    H55     H    0.78002   0.21981   0.63734   1.000
    C56     C    0.88597   0.23835   0.51772   1.000
    C57     C    0.44679   0.20854   0.52033   1.000
    C58     C    0.94622   0.20835   0.52025   1.000
    C59     C    0.47208   0.10172   0.51011   1.000
    H60     H    0.09798   0.13413   0.68982   1.000
    H61     H    0.59690   0.13444   0.68990   1.000
    H62     H    0.14327   0.05124   0.76615   1.000
    H63     H    0.64219   0.05142   0.76620   1.000
    H64     H    0.23200   0.30589   0.57439   1.000
    H65     H    0.73092   0.30597   0.57443   1.000
    H66     H    0.10466   0.22977   0.61401   1.000
    H67     H    0.60358   0.23004   0.61411   1.000
    H68     H    0.15116   0.81829   0.49201   1.000
    H69     H    0.65065   0.81776   0.49184   1.000
    H70     H    0.01976   0.72926   0.47016   1.000
    H71     H    0.51909   0.72922   0.47010   1.000
    H72     H    0.43502   0.84450   0.47262   1.000
    H73     H    0.93540   0.84397   0.47267   1.000
    H74     H    0.11426   0.97947   0.51061   1.000
    H75     H    0.61421   0.97853   0.51056   1.000
    C76     C    0.38660   0.26116   0.98263   1.000
    C77     C    0.88602   0.26169   0.98225   1.000
    C78     C    0.44681   0.29126   0.98015   1.000
    H79     H    0.18772   0.48438   0.66184   1.000
    H80     H    0.68683   0.48412   0.66200   1.000
    H81     H    0.31844   0.45567   0.70732   1.000
    H82     H    0.81771   0.45593   0.70729   1.000
    H83     H    0.32637   0.36367   0.78609   1.000
    H84     H    0.82576   0.36399   0.78620   1.000
    H85     H    0.28100   0.27978   0.86247   1.000
    H86     H    0.78040   0.28004   0.86258   1.000
    H87     H    0.09791   0.36639   0.81028   1.000
    H88     H    0.59728   0.36630   0.81032   1.000
    H89     H    0.14317   0.44924   0.73392   1.000
    H90     H    0.64252   0.44923   0.73398   1.000
    H91     H    0.23195   0.19413   0.92555   1.000
    H92     H    0.73122   0.19417   0.92567   1.000
    H93     H    0.10461   0.27040   0.88598   1.000
    H94     H    0.60394   0.27040   0.88595   1.000
    H95     H    0.15112   0.68173   0.00794   1.000
    H96     H    0.65066   0.68229   0.00700   1.000
    H97     H    0.01971   0.77078   0.02984   1.000
    H98     H    0.51905   0.77117   0.02915   1.000
    H99     H    0.43503   0.65573   0.02719   1.000
    H100    H    0.93536   0.65610   0.02726   1.000
    H101    H    0.11427   0.52053   0.98942   1.000
    H102    H    0.61417   0.52147   0.98913   1.000
    C103    C    0.26281   0.98631   0.16522   1.000
    C104    C    0.76164   0.98642   0.16522   1.000
    C105    C    0.23339   0.95385   0.20790   1.000
    C106    C    0.73228   0.95380   0.20790   1.000
    C107    C    0.26243   0.91187   0.25383   1.000
    C108    C    0.76135   0.91188   0.25383   1.000
    C109    C    0.22490   0.86510   0.29181   1.000
    C110    C    0.72384   0.86503   0.29180   1.000
    C111    C    0.25038   0.81795   0.33477   1.000
    C112    C    0.74932   0.81794   0.33477   1.000
    C113    C    0.31535   0.81601   0.34206   1.000
    C114    C    0.81428   0.81615   0.34211   1.000
    C115    C    0.35275   0.86578   0.30480   1.000
    C116    C    0.85167   0.86599   0.30494   1.000
    C117    C    0.32725   0.91224   0.26186   1.000
    C118    C    0.82617   0.91238   0.26100   1.000
    C119    C    0.31908   0.70653   0.42226   1.000
    C120    C    0.81800   0.70669   0.42232   1.000
    C121    C    0.34569   0.76369   0.38466   1.000
    C122    C    0.84461   0.76389   0.38470   1.000
    C123    C    0.38659   0.23870   0.51784   1.000
    C124    C    0.97179   0.10162   0.51006   1.000
    C125    C    0.03660   0.08681   0.51556   1.000
    C126    C    0.53685   0.08648   0.51558   1.000
    C127    C    0.43591   0.01276   0.49418   1.000
    C128    C    0.93588   0.01228   0.49415   1.000
    C129    C    0.26267   0.51365   0.33470   1.000
    C130    C    0.76179   0.51357   0.33478   1.000
    C131    C    0.23316   0.54618   0.29207   1.000
    C132    C    0.73242   0.54629   0.29211   1.000
    C133    C    0.26211   0.58807   0.24609   1.000
    C134    C    0.76147   0.58820   0.24617   1.000
    C135    C    0.22456   0.63505   0.20810   1.000
    C136    C    0.72394   0.63527   0.20827   1.000
    C137    C    0.25002   0.68214   0.16519   1.000
    C138    C    0.74940   0.68232   0.16528   1.000
    C139    C    0.31497   0.68380   0.15781   1.000
    C140    C    0.81435   0.68387   0.15787   1.000
    C141    C    0.35238   0.63380   0.19491   1.000
    C142    C    0.85175   0.63381   0.19496   1.000
    C143    C    0.32691   0.58740   0.23796   1.000
    C144    C    0.82627   0.58745   0.23800   1.000
    C145    C    0.31877   0.79335   0.07762   1.000
    C146    C    0.81804   0.79336   0.07766   1.000
    C147    C    0.34533   0.73608   0.11521   1.000
    C148    C    0.84467   0.73611   0.11523   1.000
    C149    C    0.94626   0.29169   0.97970   1.000
    C150    C    0.47209   0.39820   0.99011   1.000
    C151    C    0.97181   0.39842   0.98990   1.000
    C152    C    0.03663   0.41321   0.98440   1.000
    C153    C    0.53684   0.41344   0.98440   1.000
    C154    C    0.43593   0.48729   0.00595   1.000
    C155    C    0.93588   0.48778   0.00579   1.000
    C156    C    0.23838   0.01362   0.83475   1.000
    C157    C    0.73721   0.01374   0.83475   1.000
    C158    C    0.26774   0.04625   0.79207   1.000
    C159    C    0.76663   0.04621   0.79207   1.000
    C160    C    0.23867   0.08817   0.74614   1.000
    C161    C    0.73759   0.08818   0.74614   1.000
    C162    C    0.27618   0.13502   0.70817   1.000
    C163    C    0.77512   0.13495   0.70816   1.000
    C164    C    0.25070   0.18211   0.66519   1.000
    C165    C    0.74963   0.18210   0.66520   1.000
    C166    C    0.18574   0.18390   0.65786   1.000
    C167    C    0.68467   0.18404   0.65791   1.000
    C168    C    0.14835   0.13407   0.69502   1.000
    C169    C    0.64727   0.13427   0.69508   1.000
    C170    C    0.17385   0.08767   0.73807   1.000
    C171    C    0.67277   0.08781   0.73811   1.000
    C172    C    0.18202   0.29335   0.57765   1.000
    C173    C    0.68094   0.29351   0.57771   1.000
    C174    C    0.15541   0.23616   0.61523   1.000
    C175    C    0.65433   0.23636   0.61531   1.000
    C176    C    0.11405   0.76169   0.48225   1.000
    C177    C    0.61343   0.76134   0.48213   1.000
    C178    C    0.05380   0.79170   0.47972   1.000
    C179    C    0.55323   0.79150   0.47964   1.000
    C180    C    0.02823   0.89842   0.48992   1.000
    C181    C    0.52794   0.89831   0.48987   1.000
    C182    C    0.46317   0.91356   0.48439   1.000
    C183    C    0.96342   0.91323   0.48442   1.000
    C184    C    0.06414   0.98776   0.50582   1.000
    C185    C    0.56411   0.98728   0.50579   1.000
    C186    C    0.23823   0.48647   0.66519   1.000
    C187    C    0.73734   0.48639   0.66527   1.000
    C188    C    0.26759   0.45376   0.70780   1.000
    C189    C    0.76686   0.45387   0.70790   1.000
    C190    C    0.23855   0.41185   0.75380   1.000
    C191    C    0.73791   0.41198   0.75388   1.000
    C192    C    0.27608   0.36478   0.79170   1.000
    C193    C    0.77546   0.36500   0.79179   1.000
    C194    C    0.25062   0.31773   0.83469   1.000
    C195    C    0.75001   0.31792   0.83478   1.000
    C196    C    0.18567   0.31618   0.84210   1.000
    C197    C    0.68505   0.31625   0.84216   1.000
    C198    C    0.14827   0.36624   0.80501   1.000
    C199    C    0.64764   0.36625   0.80506   1.000
    C200    C    0.17375   0.41260   0.76194   1.000
    C201    C    0.67311   0.41265   0.76201   1.000
    C202    C    0.18198   0.20669   0.92230   1.000
    C203    C    0.68125   0.20670   0.92235   1.000
    C204    C    0.15535   0.26394   0.88474   1.000
    C205    C    0.65470   0.26397   0.88476   1.000
    C206    C    0.11400   0.73834   0.01772   1.000
    C207    C    0.61341   0.73889   0.01734   1.000
    C208    C    0.05376   0.70835   0.02027   1.000
    C209    C    0.55321   0.70878   0.01982   1.000
    C210    C    0.02821   0.60162   0.01007   1.000
    C211    C    0.52793   0.60185   0.00980   1.000
    C212    C    0.46318   0.58661   0.01548   1.000
    C213    C    0.96340   0.58683   0.01554   1.000
    C214    C    0.06414   0.51226   0.99418   1.000
    C215    C    0.56409   0.51275   0.99402   1.000
loop_
    _geom_bond_atom_site_label_1
    _geom_bond_atom_site_label_2
    _geom_bond_distance
    _geom_bond_site_symmetry_2
    _ccdc_geom_bond_type
    C155   H47       1.09058      .   S
    C155   C213      1.38620      .   S
    C155   C151      1.40957  1_554   S
    C154   H46       1.09052      .   S
    C154   C212      1.38581      .   S
    C154   C150      1.40944  1_554   S
    H96    C207      1.09668      .   S
    H95    C206      1.09153      .   S
    C211   C212      1.41380      .   S
    C211   C209      1.45628      .   S
    C211   C215      1.40902  1_554   S
    C210   C213      1.41400  1_455   S
    C210   C208      1.45688      .   S
    C210   C214      1.40956  1_554   S
    C212   H99       1.09053      .   S
    C213   H100      1.09064      .   S
    C207   C209      1.35014      .   S
    C206   C208      1.35057      .   S
    C209   H98       1.09278      .   S
    C208   H97       1.09291      .   S
    H36    C145      1.08982      .   S
    H37    C146      1.08985      .   S
    C145   C147      1.35027      .   S
    C146   C148      1.35039      .   S
    H39    C148      1.09504      .   S
    H38    C147      1.09503      .   S
    C147   C139      1.45377      .   S
    C148   C140      1.45392      .   S
    H31    C138      1.09916      .   S
    H30    C137      1.09046      .   S
    C139   C137      1.41064      .   S
    C139   C141      1.41243      .   S
    C140   C138      1.41065      .   S
    C140   C142      1.41244      .   S
    H1     C104      1.09022      .   S
    H0     C103      1.09014      .   S
    C137   C135      1.38650      .   S
    C104   C106      1.34960      .   S
    C103   C105      1.34960      .   S
    C138   C136      1.38804      .   S
    H32    C141      1.09199      .   S
    H33    C142      1.09202      .   S
    C141   C143      1.38584      .   S
    C142   C144      1.38554      .   S
    H2     C105      1.09421      .   S
    H3     C106      1.09422      .   S
    C105   C107      1.45722      .   S
    C106   C108      1.45727      .   S
    C135   H28       1.09206      .   S
    C135   C133      1.41395      .   S
    C136   H29       1.09176      .   S
    C136   C134      1.41248      .   S
    H10    C117      1.08996      .   S
    H11    C118      1.07412      .   S
    C143   C133      1.40999      .   S
    C143   H34       1.08978      .   S
    C144   C134      1.41015      .   S
    C144   H35       1.08960      .   S
    C133   C131      1.45719      .   S
    C134   C132      1.45727      .   S
    C108   C118      1.40680      .   S
    C108   C110      1.41257      .   S
    C107   C117      1.41004      .   S
    C107   C109      1.41248      .   S
    C118   C116      1.40511      .   S
    C117   C115      1.38406      .   S
    H5     C110      1.09178      .   S
    H4     C109      1.09177      .   S
    C110   C112      1.38795      .   S
    C109   C111      1.38810      .   S
    C131   H26       1.09422      .   S
    C131   C129      1.34969      .   S
    C132   H27       1.09422      .   S
    C132   C130      1.34979      .   S
    C115   H8        1.09226      .   S
    C115   C113      1.41403      .   S
    C116   H9        1.09205      .   S
    C116   C114      1.41265      .   S
    C129   H24       1.09014      .   S
    C112   C114      1.41065      .   S
    C112   H7        1.09023      .   S
    C111   C113      1.41064      .   S
    C111   H6        1.08993      .   S
    C130   H25       1.09014      .   S
    C113   C121      1.45372      .   S
    C114   C122      1.45311      .   S
    C121   H14       1.09504      .   S
    C121   C119      1.35031      .   S
    C122   H15       1.09508      .   S
    C122   C120      1.35099      .   S
    C119   H12       1.08982      .   S
    C120   H13       1.08983      .   S
    H71    C179      1.09287      .   S
    H70    C178      1.09294      .   S
    H72    C182      1.09046      .   S
    H73    C183      1.09072      .   S
    C179   C177      1.35007      .   S
    C179   C181      1.45579      .   S
    C178   C176      1.35054      .   S
    C178   C180      1.45685      .   S
    C177   H69       1.09148      .   S
    C176   H68       1.09153      .   S
    C182   C181      1.41363      .   S
    C182   C127      1.38563  1_565   S
    C183   C180      1.41398  1_655   S
    C183   C128      1.38608  1_565   S
    H23    C128      1.09075      .   S
    H22    C127      1.09051      .   S
    C181   C185      1.40915      .   S
    C180   C184      1.40941      .   S
    C128   C124      1.40947      .   S
    C127   C59       1.40923      .   S
    C185   H75       1.09054      .   S
    C185   C126      1.38563  1_565   S
    C184   H74       1.09059      .   S
    C184   C125      1.38612  1_565   S
    H17    C56       1.09156      .   S
    H16    C123      1.09146      .   S
    C124   C125      1.41398  1_655   S
    C124   C58       1.45682      .   S
    C59    C126      1.41360      .   S
    C59    C57       1.45577      .   S
    C125   H20       1.09066      .   S
    C126   H21       1.09011      .   S
    C56    C58       1.35054      .   S
    C123   C57       1.35004      .   S
    C58    H19       1.09294      .   S
    C57    H18       1.09278      .   S
    H64    C172      1.08981      .   S
    H65    C173      1.08981      .   S
    C172   C174      1.35018      .   S
    C173   C175      1.35031      .   S
    H66    C174      1.09505      .   S
    H67    C175      1.09503      .   S
    C174   C166      1.45391      .   S
    C175   C167      1.45370      .   S
    H55    C165      1.09047      .   S
    H54    C164      1.09041      .   S
    C166   C164      1.41062      .   S
    C166   C168      1.41246      .   S
    C167   C165      1.41064      .   S
    C167   C169      1.41239      .   S
    H79    C186      1.09020      .   S
    H80    C187      1.09020      .   S
    C164   C162      1.38816      .   S
    C186   C188      1.34847      .   S
    C165   C163      1.38809      .   S
    C187   C189      1.34970      .   S
    H60    C168      1.09200      .   S
    H61    C169      1.09200      .   S
    C168   C170      1.38604      .   S
    C169   C171      1.38596      .   S
    H82    C189      1.09422      .   S
    H81    C188      1.09420      .   S
    C188   C190      1.45852      .   S
    C189   C191      1.45717      .   S
    C163   H53       1.09177      .   S
    C163   C161      1.41248      .   S
    C162   H52       1.09178      .   S
    C162   C160      1.41256      .   S
    H89    C200      1.08995      .   S
    H90    C201      1.08995      .   S
    C170   C160      1.41011      .   S
    C170   H62       1.08997      .   S
    C171   C161      1.41006      .   S
    C171   H63       1.08995      .   S
    C161   C159      1.45724      .   S
    C160   C158      1.45729      .   S
    C190   C200      1.41004      .   S
    C190   C192      1.41249      .   S
    C191   C201      1.40999      .   S
    C191   C193      1.41248      .   S
    C200   C198      1.38619      .   S
    C201   C199      1.38585      .   S
    H83    C192      1.09177      .   S
    H84    C193      1.09178      .   S
    C192   C194      1.38805      .   S
    C193   C195      1.38820      .   S
    C158   H50       1.09422      .   S
    C158   C156      1.34963      .   S
    C159   H51       1.09418      .   S
    C159   C157      1.34961      .   S
    C198   H87       1.09200      .   S
    C198   C196      1.41244      .   S
    C199   H88       1.09197      .   S
    C199   C197      1.41243      .   S
    C194   C196      1.41063      .   S
    C194   H85       1.09035      .   S
    C156   H48       1.08999      .   S
    C157   H49       1.09014      .   S
    C195   C197      1.41066      .   S
    C195   H86       1.09045      .   S
    C196   C204      1.45393      .   S
    C197   C205      1.45379      .   S
    C204   H93       1.09503      .   S
    C204   C202      1.35022      .   S
    C205   H94       1.09503      .   S
    C205   C203      1.35025      .   S
    C202   H91       1.08981      .   S
    C203   H92       1.08982      .   S
    H43    C149      1.09292      .   S
    H42    C78       1.09279      .   S
    H44    C152      1.09044      .   S
    H45    C153      1.08992      .   S
    C149   C77       1.35057      .   S
    C149   C151      1.45690      .   S
    C78    C76       1.35018      .   S
    C78    C150      1.45603      .   S
    C77    H41       1.09154      .   S
    C76    H40       1.09146      .   S
    C153   C150      1.41390      .   S
    C153   C215      1.38619      .   S
    C152   C151      1.41408  1_455   S
    C152   C214      1.38633      .   S
    H102   C215      1.09052      .   S
    H101   C214      1.09058      .   S
