# CIF file generated by openbabel 2.4.90, see http://openbabel.sf.net
data_I
_chemical_name_common ''
_cell_length_a 21.511
_cell_length_b 12.442
_cell_length_c 26.091
_cell_angle_alpha 91.126
_cell_angle_beta 89.998
_cell_angle_gamma 89.989
_space_group_name_H-M_alt 'P 1'
_space_group_name_Hall 'P 1'
loop_
    _symmetry_equiv_pos_as_xyz
    x,y,z
loop_
    _atom_site_label
    _atom_site_type_symbol
    _atom_site_fract_x
    _atom_site_fract_y
    _atom_site_fract_z
    _atom_site_occupancy
    N0      N    0.71052   0.14104   0.70315   1.000
    N1      N    0.78850   0.64094   0.20311   1.000
    N2      N    0.78841   0.85910   0.29679   1.000
    N3      N    0.28950   0.85901   0.29681   1.000
    N4      N    0.21161   0.14095   0.70312   1.000
    N5      N    0.28919   0.64087   0.20308   1.000
    N6      N    0.00001   0.00002   0.49998   1.000
    N7      N    0.71083   0.35918   0.79689   1.000
    N8      N    0.00001   0.50002   0.99998   1.000
    N9      N    0.50001   0.00002   0.49998   1.000
    N10     N    0.50001   0.50002   0.99993   1.000
    N11     N    0.21151   0.35911   0.79682   1.000
    Zr12    Zr   0.74949   0.49995   0.49999   1.000
    O13     O    0.84369   0.32372   0.50536   1.000
    O14     O    0.78120   0.63547   0.43485   1.000
    O15     O    0.65562   0.67615   0.49459   1.000
    O16     O    0.71776   0.36456   0.56513   1.000
    O17     O    0.75817   0.53428   0.39033   1.000
    O18     O    0.74091   0.46568   0.60966   1.000
    Zr19    Zr   0.74952   0.00013   0.99988   1.000
    O20     O    0.75813   0.96576   0.10958   1.000
    O21     O    0.74083   0.03444   0.89028   1.000
    O22     O    0.84371   0.17634   0.99456   1.000
    O23     O    0.78125   0.86459   0.06505   1.000
    O24     O    0.65564   0.82395   0.00517   1.000
    O25     O    0.71792   0.13558   0.93482   1.000
    Zr26    Zr   0.25053   0.50008   0.49998   1.000
    O27     O    0.34440   0.32388   0.50538   1.000
    O28     O    0.28226   0.63548   0.43483   1.000
    O29     O    0.15633   0.67632   0.49461   1.000
    O30     O    0.21882   0.36457   0.56510   1.000
    O31     O    0.24184   0.46576   0.60963   1.000
    O32     O    0.25910   0.53436   0.39030   1.000
    Zr33    Zr   0.25050   0.99990   0.00008   1.000
    O34     O    0.25919   0.96560   0.10968   1.000
    O35     O    0.28210   0.86446   0.06514   1.000
    O36     O    0.24189   0.03428   0.89037   1.000
    O37     O    0.34438   0.17608   0.99476   1.000
    O38     O    0.15631   0.82370   0.00540   1.000
    O39     O    0.21877   0.13545   0.93489   1.000
loop_
    _geom_bond_atom_site_label_1
    _geom_bond_atom_site_label_2
    _geom_bond_distance
    _geom_bond_site_symmetry_2
    _ccdc_geom_bond_type
    Zr12   O13       2.99058      .   S
    N6     O13       5.24601  1_455   S
    Zr12   O14       2.51194      .   S
    N2     O14       4.59725      .   S
    Zr12   O15       2.98556      .   S
    N9     O15       5.23779  1_545   S
    Zr12   O16       2.51102      .   S
    N0     O16       4.59554      .   S
    Zr12   O17       2.90717      .   S
    N1     O17       5.12848      .   S
    Zr12   O18       2.90728      .   S
    N7     O18       5.12743      .   S
    Zr19   O20       2.90808  1_546   S
    N2     O20       5.12822      .   S
    Zr19   O21       2.90564      .   S
    N0     O21       5.12609      .   S
    Zr19   O22       2.99085      .   S
    N8     O22       5.24648  1_455   S
    Zr19   O23       2.51260  1_546   S
    N1     O23       4.59746      .   S
    Zr19   O24       2.98586  1_546   S
    N10    O24       5.23962  1_556   S
    Zr19   O25       2.50917      .   S
    N7     O25       4.59429      .   S
    Zr26   O27       2.98556      .   S
    N9     O27       5.23778      .   S
    Zr26   O28       2.51111      .   S
    N3     O28       4.59579      .   S
    Zr26   O29       2.99058      .   S
    N6     O29       5.24601  1_545   S
    Zr26   O30       2.51164      .   S
    N4     O30       4.59626      .   S
    Zr26   O31       2.90691      .   S
    N11    O31       5.12776      .   S
    Zr26   O32       2.90730      .   S
    N5     O32       5.12757      .   S
    Zr33   O34       2.90571      .   S
    N3     O34       5.12598      .   S
    Zr33   O35       2.50922      .   S
    N5     O35       4.59425      .   S
    Zr33   O36       2.90831  1_564   S
    N4     O36       5.12921      .   S
    Zr33   O37       2.98596  1_564   S
    N10    O37       5.23969      .   S
    Zr33   O38       2.99079      .   S
    N8     O38       5.24637  1_556   S
    Zr33   O39       2.51284  1_564   S
    N11    O39       4.59786      .   S
