# CIF file generated by openbabel 2.4.90, see http://openbabel.sf.net
data_I
_chemical_name_common ''
_cell_length_a 21.511
_cell_length_b 12.442
_cell_length_c 26.091
_cell_angle_alpha 91.126
_cell_angle_beta 89.998
_cell_angle_gamma 89.989
_space_group_name_H-M_alt 'P 1'
_space_group_name_Hall 'P 1'
loop_
    _symmetry_equiv_pos_as_xyz
    x,y,z
loop_
    _atom_site_label
    _atom_site_type_symbol
    _atom_site_fract_x
    _atom_site_fract_y
    _atom_site_fract_z
    _atom_site_occupancy
    C0      C    0.38347   0.57409   0.55987   1.000
    C1      C    0.88244   0.57400   0.55985   1.000
    C2      C    0.38353   0.92600   0.94016   1.000
    C3      C    0.88244   0.92606   0.94011   1.000
    C4      C    0.11757   0.42602   0.44012   1.000
    C5      C    0.61655   0.42594   0.44010   1.000
    C6      C    0.11757   0.07397   0.05980   1.000
    C7      C    0.61649   0.07402   0.05981   1.000
    C8      C    0.25057   0.50012   0.49999   1.000
    C9      C    0.74944   0.49991   0.49998   1.000
    C10     C    0.25055   0.99990   0.99998   1.000
    C11     C    0.74946   0.00011   0.00000   1.000
    C12     C    0.31331   0.98395   0.16189   1.000
    C13     C    0.81214   0.98429   0.16187   1.000
    C14     C    0.18254   0.95600   0.20738   1.000
    C15     C    0.68143   0.95578   0.20739   1.000
    C16     C    0.17459   0.86431   0.28630   1.000
    C17     C    0.67353   0.86413   0.28626   1.000
    C18     C    0.22000   0.78025   0.36260   1.000
    C19     C    0.71894   0.78018   0.36260   1.000
    C20     C    0.40312   0.86561   0.31006   1.000
    C21     C    0.90204   0.86593   0.31015   1.000
    C22     C    0.35783   0.94864   0.23377   1.000
    C23     C    0.85674   0.94882   0.23382   1.000
    C24     C    0.26910   0.69408   0.42554   1.000
    C25     C    0.76802   0.69416   0.42558   1.000
    C26     C    0.39644   0.77001   0.38586   1.000
    C27     C    0.89536   0.77028   0.38596   1.000
    C28     C    0.34937   0.18228   0.50813   1.000
    C29     C    0.84886   0.18174   0.50796   1.000
    C30     C    0.48093   0.27083   0.52985   1.000
    C31     C    0.98026   0.27078   0.52981   1.000
    C32     C    0.06462   0.15607   0.52730   1.000
    C33     C    0.56500   0.15554   0.52730   1.000
    C34     C    0.38581   0.02151   0.48942   1.000
    C35     C    0.88576   0.02057   0.48930   1.000
    C36     C    0.27963   0.76736   0.56983   1.000
    C37     C    0.77939   0.76765   0.57016   1.000
    C38     C    0.27948   0.96171   0.60081   1.000
    C39     C    0.77973   0.96193   0.60120   1.000
    C40     C    0.37934   0.04445   0.63018   1.000
    C41     C    0.87987   0.04403   0.63036   1.000
    C42     C    0.13789   0.72309   0.62010   1.000
    C43     C    0.63802   0.72501   0.62065   1.000
    C44     C    0.12416   0.53788   0.58532   1.000
    C45     C    0.62482   0.53972   0.58585   1.000
    C46     C    0.01695   0.47359   0.56096   1.000
    C47     C    0.51776   0.47473   0.56126   1.000
    C48     C    0.49544   0.02228   0.64587   1.000
    C49     C    0.99597   0.02113   0.64578   1.000
    C50     C    0.08893   0.90439   0.64286   1.000
    C51     C    0.58864   0.90610   0.64322   1.000
    C52     C    0.31318   0.51592   0.33794   1.000
    C53     C    0.81229   0.51567   0.33810   1.000
    C54     C    0.18231   0.54413   0.29268   1.000
    C55     C    0.68157   0.54438   0.29265   1.000
    C56     C    0.17426   0.63607   0.21377   1.000
    C57     C    0.67365   0.63638   0.21387   1.000
    C58     C    0.21962   0.72001   0.13739   1.000
    C59     C    0.71902   0.72027   0.13700   1.000
    C60     C    0.40274   0.63375   0.18965   1.000
    C61     C    0.90211   0.63366   0.18969   1.000
    C62     C    0.35750   0.55082   0.26598   1.000
    C63     C    0.85685   0.55081   0.26600   1.000
    C64     C    0.26880   0.80588   0.07430   1.000
    C65     C    0.76806   0.80591   0.07440   1.000
    C66     C    0.39608   0.72965   0.11402   1.000
    C67     C    0.89541   0.72965   0.11398   1.000
    C68     C    0.34936   0.31775   0.99207   1.000
    C69     C    0.84891   0.31831   0.99203   1.000
    C70     C    0.48098   0.22888   0.97082   1.000
    C71     C    0.98032   0.22926   0.97013   1.000
    C72     C    0.06466   0.34394   0.97271   1.000
    C73     C    0.56499   0.34431   0.97278   1.000
    C74     C    0.38585   0.47858   0.01084   1.000
    C75     C    0.88575   0.47951   0.01055   1.000
    C76     C    0.27986   0.73262   0.93012   1.000
    C77     C    0.77939   0.73259   0.92970   1.000
    C78     C    0.27985   0.53832   0.89908   1.000
    C79     C    0.77973   0.53834   0.89860   1.000
    C80     C    0.37977   0.45579   0.86963   1.000
    C81     C    0.87988   0.45616   0.86947   1.000
    C82     C    0.13791   0.77687   0.87987   1.000
    C83     C    0.63810   0.77588   0.87887   1.000
    C84     C    0.12417   0.96210   0.91465   1.000
    C85     C    0.62476   0.96107   0.91300   1.000
    C86     C    0.01694   0.02641   0.93901   1.000
    C87     C    0.51773   0.02568   0.93862   1.000
    C88     C    0.49584   0.47820   0.85388   1.000
    C89     C    0.99599   0.47893   0.85413   1.000
    C90     C    0.08897   0.59560   0.85710   1.000
    C91     C    0.58891   0.59466   0.85639   1.000
    C92     C    0.18788   0.01576   0.83800   1.000
    C93     C    0.68671   0.01610   0.83807   1.000
    C94     C    0.31859   0.04427   0.79258   1.000
    C95     C    0.81748   0.04405   0.79250   1.000
    C96     C    0.32649   0.13592   0.71371   1.000
    C97     C    0.82543   0.13574   0.71367   1.000
    C98     C    0.28108   0.21987   0.63735   1.000
    C99     C    0.78002   0.21981   0.63734   1.000
    C100    C    0.09798   0.13413   0.68982   1.000
    C101    C    0.59690   0.13444   0.68990   1.000
    C102    C    0.14327   0.05124   0.76615   1.000
    C103    C    0.64219   0.05142   0.76620   1.000
    C104    C    0.23200   0.30589   0.57439   1.000
    C105    C    0.73092   0.30597   0.57443   1.000
    C106    C    0.10466   0.22977   0.61401   1.000
    C107    C    0.60358   0.23004   0.61411   1.000
    C108    C    0.15116   0.81829   0.49201   1.000
    C109    C    0.65065   0.81776   0.49184   1.000
    C110    C    0.01976   0.72926   0.47016   1.000
    C111    C    0.51909   0.72922   0.47010   1.000
    C112    C    0.43502   0.84450   0.47262   1.000
    C113    C    0.93540   0.84397   0.47267   1.000
    C114    C    0.11426   0.97947   0.51061   1.000
    C115    C    0.61421   0.97853   0.51056   1.000
    C116    C    0.22063   0.23240   0.42980   1.000
    C117    C    0.72039   0.23268   0.43013   1.000
    C118    C    0.22028   0.03810   0.39877   1.000
    C119    C    0.72053   0.03833   0.39917   1.000
    C120    C    0.12014   0.95601   0.36961   1.000
    C121    C    0.62067   0.95558   0.36980   1.000
    C122    C    0.36199   0.27504   0.37932   1.000
    C123    C    0.86212   0.27695   0.37988   1.000
    C124    C    0.37520   0.46033   0.41412   1.000
    C125    C    0.87586   0.46217   0.41465   1.000
    C126    C    0.48225   0.52532   0.43870   1.000
    C127    C    0.98308   0.52645   0.43900   1.000
    C128    C    0.00405   0.97890   0.35420   1.000
    C129    C    0.50457   0.97775   0.35411   1.000
    C130    C    0.41137   0.09395   0.35675   1.000
    C131    C    0.91108   0.09565   0.35710   1.000
    C132    C    0.18772   0.48438   0.66184   1.000
    C133    C    0.68683   0.48412   0.66200   1.000
    C134    C    0.31844   0.45567   0.70732   1.000
    C135    C    0.81771   0.45593   0.70729   1.000
    C136    C    0.32637   0.36367   0.78609   1.000
    C137    C    0.82576   0.36399   0.78620   1.000
    C138    C    0.28100   0.27978   0.86247   1.000
    C139    C    0.78040   0.28004   0.86258   1.000
    C140    C    0.09791   0.36639   0.81028   1.000
    C141    C    0.59728   0.36630   0.81032   1.000
    C142    C    0.14317   0.44924   0.73392   1.000
    C143    C    0.64252   0.44923   0.73398   1.000
    C144    C    0.23195   0.19413   0.92555   1.000
    C145    C    0.73122   0.19417   0.92567   1.000
    C146    C    0.10461   0.27040   0.88598   1.000
    C147    C    0.60394   0.27040   0.88595   1.000
    C148    C    0.15112   0.68173   0.00794   1.000
    C149    C    0.65066   0.68229   0.00700   1.000
    C150    C    0.01971   0.77078   0.02984   1.000
    C151    C    0.51905   0.77117   0.02915   1.000
    C152    C    0.43503   0.65573   0.02719   1.000
    C153    C    0.93536   0.65610   0.02726   1.000
    C154    C    0.11427   0.52053   0.98942   1.000
    C155    C    0.61417   0.52147   0.98913   1.000
    C156    C    0.22063   0.26746   0.07026   1.000
    C157    C    0.72016   0.26743   0.06985   1.000
    C158    C    0.22030   0.46171   0.10137   1.000
    C159    C    0.72017   0.46173   0.10089   1.000
    C160    C    0.12014   0.54387   0.13051   1.000
    C161    C    0.62025   0.54426   0.13034   1.000
    C162    C    0.36192   0.22416   0.12110   1.000
    C163    C    0.86211   0.22317   0.12010   1.000
    C164    C    0.37526   0.03898   0.08617   1.000
    C165    C    0.87585   0.03794   0.08532   1.000
    C166    C    0.48229   0.97437   0.06134   1.000
    C167    C    0.98308   0.97363   0.06096   1.000
    C168    C    0.00403   0.52111   0.14585   1.000
    C169    C    0.50418   0.52185   0.14609   1.000
    C170    C    0.41111   0.40538   0.14358   1.000
    C171    C    0.91106   0.40443   0.14288   1.000
    C172    C    0.22972   0.02086   0.11831   1.000
    C173    C    0.72852   0.02091   0.11830   1.000
    C174    C    0.26281   0.98631   0.16522   1.000
    C175    C    0.76164   0.98642   0.16522   1.000
    C176    C    0.23339   0.95385   0.20790   1.000
    C177    C    0.73228   0.95380   0.20790   1.000
    C178    C    0.26243   0.91187   0.25383   1.000
    C179    C    0.76135   0.91188   0.25383   1.000
    C180    C    0.22490   0.86510   0.29181   1.000
    C181    C    0.72384   0.86503   0.29180   1.000
    C182    C    0.25038   0.81795   0.33477   1.000
    C183    C    0.74932   0.81794   0.33477   1.000
    C184    C    0.31535   0.81601   0.34206   1.000
    C185    C    0.81428   0.81615   0.34211   1.000
    C186    C    0.35275   0.86578   0.30480   1.000
    C187    C    0.85167   0.86599   0.30494   1.000
    C188    C    0.32725   0.91224   0.26186   1.000
    C189    C    0.82617   0.91238   0.26100   1.000
    C190    C    0.35790   0.65895   0.46287   1.000
    C191    C    0.85681   0.65909   0.46294   1.000
    C192    C    0.31908   0.70653   0.42226   1.000
    C193    C    0.81800   0.70669   0.42232   1.000
    C194    C    0.34569   0.76369   0.38466   1.000
    C195    C    0.84461   0.76389   0.38470   1.000
    C196    C    0.36644   0.35199   0.52529   1.000
    C197    C    0.86555   0.35159   0.52524   1.000
    C198    C    0.38659   0.23870   0.51784   1.000
    C199    C    0.88597   0.23835   0.51772   1.000
    C200    C    0.44679   0.20854   0.52033   1.000
    C201    C    0.94622   0.20835   0.52025   1.000
    C202    C    0.47208   0.10172   0.51011   1.000
    C203    C    0.97179   0.10162   0.51006   1.000
    C204    C    0.03660   0.08681   0.51556   1.000
    C205    C    0.53685   0.08648   0.51558   1.000
    C206    C    0.43591   0.01276   0.49418   1.000
    C207    C    0.93588   0.01228   0.49415   1.000
    C208    C    0.32185   0.80674   0.58392   1.000
    C209    C    0.82174   0.80675   0.58410   1.000
    C210    C    0.32229   0.91485   0.60090   1.000
    C211    C    0.82245   0.91483   0.60117   1.000
    C212    C    0.37756   0.96041   0.61759   1.000
    C213    C    0.87787   0.96001   0.61774   1.000
    C214    C    0.43241   0.89803   0.61763   1.000
    C215    C    0.93260   0.89731   0.61763   1.000
    C216    C    0.42727   0.78954   0.60016   1.000
    C217    C    0.92719   0.78887   0.60013   1.000
    C218    C    0.48158   0.72173   0.59840   1.000
    C219    C    0.98135   0.72074   0.59825   1.000
    C220    C    0.03976   0.76306   0.61377   1.000
    C221    C    0.53985   0.76441   0.61408   1.000
    C222    C    0.09174   0.69393   0.60943   1.000
    C223    C    0.59196   0.69556   0.60987   1.000
    C224    C    0.08404   0.59029   0.59056   1.000
    C225    C    0.58454   0.59185   0.59101   1.000
    C226    C    0.02430   0.55460   0.57639   1.000
    C227    C    0.52493   0.55579   0.57670   1.000
    C228    C    0.49189   0.93837   0.63333   1.000
    C229    C    0.99220   0.93727   0.63321   1.000
    C230    C    0.04361   0.87268   0.63142   1.000
    C231    C    0.54342   0.87409   0.63169   1.000
    C232    C    0.22967   0.47912   0.38165   1.000
    C233    C    0.72863   0.47899   0.38166   1.000
    C234    C    0.26267   0.51365   0.33470   1.000
    C235    C    0.76179   0.51357   0.33478   1.000
    C236    C    0.23316   0.54618   0.29207   1.000
    C237    C    0.73242   0.54629   0.29211   1.000
    C238    C    0.26211   0.58807   0.24609   1.000
    C239    C    0.76147   0.58820   0.24617   1.000
    C240    C    0.22456   0.63505   0.20810   1.000
    C241    C    0.72394   0.63527   0.20827   1.000
    C242    C    0.25002   0.68214   0.16519   1.000
    C243    C    0.74940   0.68232   0.16528   1.000
    C244    C    0.31497   0.68380   0.15781   1.000
    C245    C    0.81435   0.68387   0.15787   1.000
    C246    C    0.35238   0.63380   0.19491   1.000
    C247    C    0.85175   0.63381   0.19496   1.000
    C248    C    0.32691   0.58740   0.23796   1.000
    C249    C    0.82627   0.58745   0.23800   1.000
    C250    C    0.35766   0.84093   0.03705   1.000
    C251    C    0.85684   0.84096   0.03700   1.000
    C252    C    0.31877   0.79335   0.07762   1.000
    C253    C    0.81804   0.79336   0.07766   1.000
    C254    C    0.34533   0.73608   0.11521   1.000
    C255    C    0.84467   0.73611   0.11523   1.000
    C256    C    0.36640   0.14786   0.97531   1.000
    C257    C    0.86559   0.14846   0.97473   1.000
    C258    C    0.38660   0.26116   0.98263   1.000
    C259    C    0.88602   0.26169   0.98225   1.000
    C260    C    0.44681   0.29126   0.98015   1.000
    C261    C    0.94626   0.29169   0.97970   1.000
    C262    C    0.47209   0.39820   0.99011   1.000
    C263    C    0.97181   0.39842   0.98990   1.000
    C264    C    0.03663   0.41321   0.98440   1.000
    C265    C    0.53684   0.41344   0.98440   1.000
    C266    C    0.43593   0.48729   0.00595   1.000
    C267    C    0.93588   0.48778   0.00579   1.000
    C268    C    0.32210   0.69334   0.91599   1.000
    C269    C    0.82174   0.69346   0.91572   1.000
    C270    C    0.32262   0.58525   0.89898   1.000
    C271    C    0.82245   0.58540   0.89867   1.000
    C272    C    0.37791   0.53982   0.88225   1.000
    C273    C    0.87787   0.54017   0.88210   1.000
    C274    C    0.43271   0.60231   0.88217   1.000
    C275    C    0.93262   0.60281   0.88227   1.000
    C276    C    0.42748   0.71078   0.89966   1.000
    C277    C    0.92720   0.71123   0.89979   1.000
    C278    C    0.48171   0.77872   0.90133   1.000
    C279    C    0.98137   0.77932   0.90170   1.000
    C280    C    0.03978   0.73696   0.88618   1.000
    C281    C    0.53999   0.73622   0.88550   1.000
    C282    C    0.09176   0.80606   0.89053   1.000
    C283    C    0.59204   0.80521   0.88972   1.000
    C284    C    0.08405   0.90970   0.90940   1.000
    C285    C    0.58454   0.90886   0.90864   1.000
    C286    C    0.02431   0.94542   0.92357   1.000
    C287    C    0.52493   0.94472   0.92300   1.000
    C288    C    0.49220   0.56211   0.86641   1.000
    C289    C    0.99223   0.56280   0.86671   1.000
    C290    C    0.04364   0.62735   0.86852   1.000
    C291    C    0.54366   0.62655   0.86790   1.000
    C292    C    0.27150   0.97912   0.88167   1.000
    C293    C    0.77030   0.97918   0.88166   1.000
    C294    C    0.23838   0.01362   0.83475   1.000
    C295    C    0.73721   0.01374   0.83475   1.000
    C296    C    0.26774   0.04625   0.79207   1.000
    C297    C    0.76663   0.04621   0.79207   1.000
    C298    C    0.23867   0.08817   0.74614   1.000
    C299    C    0.73759   0.08818   0.74614   1.000
    C300    C    0.27618   0.13502   0.70817   1.000
    C301    C    0.77512   0.13495   0.70816   1.000
    C302    C    0.25070   0.18211   0.66519   1.000
    C303    C    0.74963   0.18210   0.66520   1.000
    C304    C    0.18574   0.18390   0.65786   1.000
    C305    C    0.68467   0.18404   0.65791   1.000
    C306    C    0.14835   0.13407   0.69502   1.000
    C307    C    0.64727   0.13427   0.69508   1.000
    C308    C    0.17385   0.08767   0.73807   1.000
    C309    C    0.67277   0.08781   0.73811   1.000
    C310    C    0.14321   0.34095   0.53703   1.000
    C311    C    0.64212   0.34109   0.53710   1.000
    C312    C    0.18202   0.29335   0.57765   1.000
    C313    C    0.68094   0.29351   0.57771   1.000
    C314    C    0.15541   0.23616   0.61523   1.000
    C315    C    0.65433   0.23636   0.61531   1.000
    C316    C    0.13447   0.64845   0.47473   1.000
    C317    C    0.63358   0.64805   0.47467   1.000
    C318    C    0.11405   0.76169   0.48225   1.000
    C319    C    0.61343   0.76134   0.48213   1.000
    C320    C    0.05380   0.79170   0.47972   1.000
    C321    C    0.55323   0.79150   0.47964   1.000
    C322    C    0.02823   0.89842   0.48992   1.000
    C323    C    0.52794   0.89831   0.48987   1.000
    C324    C    0.46317   0.91356   0.48439   1.000
    C325    C    0.96342   0.91323   0.48442   1.000
    C326    C    0.06414   0.98776   0.50582   1.000
    C327    C    0.56411   0.98728   0.50579   1.000
    C328    C    0.17828   0.19329   0.41581   1.000
    C329    C    0.67816   0.19329   0.41605   1.000
    C330    C    0.17757   0.08521   0.39880   1.000
    C331    C    0.67772   0.08518   0.39900   1.000
    C332    C    0.12215   0.04002   0.38223   1.000
    C333    C    0.62245   0.03963   0.38239   1.000
    C334    C    0.06742   0.10273   0.38234   1.000
    C335    C    0.56760   0.10201   0.38234   1.000
    C336    C    0.07283   0.21117   0.39984   1.000
    C337    C    0.57274   0.21050   0.39980   1.000
    C338    C    0.01867   0.27930   0.40172   1.000
    C339    C    0.51843   0.27831   0.40153   1.000
    C340    C    0.46016   0.23564   0.38589   1.000
    C341    C    0.96026   0.23698   0.38620   1.000
    C342    C    0.40805   0.30449   0.39009   1.000
    C343    C    0.90828   0.30611   0.39054   1.000
    C344    C    0.41548   0.40820   0.40896   1.000
    C345    C    0.91598   0.40975   0.40941   1.000
    C346    C    0.47509   0.44426   0.42326   1.000
    C347    C    0.97572   0.44544   0.42358   1.000
    C348    C    0.00781   0.06277   0.36670   1.000
    C349    C    0.50812   0.06166   0.36665   1.000
    C350    C    0.45659   0.12596   0.36828   1.000
    C351    C    0.95641   0.12736   0.36855   1.000
    C352    C    0.27139   0.52104   0.61830   1.000
    C353    C    0.77035   0.52092   0.61832   1.000
    C354    C    0.23823   0.48647   0.66519   1.000
    C355    C    0.73734   0.48639   0.66527   1.000
    C356    C    0.26759   0.45376   0.70780   1.000
    C357    C    0.76686   0.45387   0.70790   1.000
    C358    C    0.23855   0.41185   0.75380   1.000
    C359    C    0.73791   0.41198   0.75388   1.000
    C360    C    0.27608   0.36478   0.79170   1.000
    C361    C    0.77546   0.36500   0.79179   1.000
    C362    C    0.25062   0.31773   0.83469   1.000
    C363    C    0.75001   0.31792   0.83478   1.000
    C364    C    0.18567   0.31618   0.84210   1.000
    C365    C    0.68505   0.31625   0.84216   1.000
    C366    C    0.14827   0.36624   0.80501   1.000
    C367    C    0.64764   0.36625   0.80506   1.000
    C368    C    0.17375   0.41260   0.76194   1.000
    C369    C    0.67311   0.41265   0.76201   1.000
    C370    C    0.14317   0.15908   0.96292   1.000
    C371    C    0.64236   0.15911   0.96292   1.000
    C372    C    0.18198   0.20669   0.92230   1.000
    C373    C    0.68125   0.20670   0.92235   1.000
    C374    C    0.15535   0.26394   0.88474   1.000
    C375    C    0.65470   0.26397   0.88476   1.000
    C376    C    0.13443   0.85158   0.02524   1.000
    C377    C    0.63362   0.85218   0.02465   1.000
    C378    C    0.11400   0.73834   0.01772   1.000
    C379    C    0.61341   0.73889   0.01734   1.000
    C380    C    0.05376   0.70835   0.02027   1.000
    C381    C    0.55321   0.70878   0.01982   1.000
    C382    C    0.02821   0.60162   0.01007   1.000
    C383    C    0.52793   0.60185   0.00980   1.000
    C384    C    0.46318   0.58661   0.01548   1.000
    C385    C    0.96340   0.58683   0.01554   1.000
    C386    C    0.06414   0.51226   0.99418   1.000
    C387    C    0.56409   0.51275   0.99402   1.000
    C388    C    0.17828   0.30659   0.08425   1.000
    C389    C    0.67792   0.30671   0.08398   1.000
    C390    C    0.17757   0.41464   0.10130   1.000
    C391    C    0.67740   0.41480   0.10099   1.000
    C392    C    0.12215   0.45987   0.11786   1.000
    C393    C    0.62211   0.46022   0.11772   1.000
    C394    C    0.06740   0.39723   0.11770   1.000
    C395    C    0.56731   0.39773   0.11780   1.000
    C396    C    0.07282   0.28881   0.10018   1.000
    C397    C    0.57254   0.28926   0.10031   1.000
    C398    C    0.01865   0.22072   0.09827   1.000
    C399    C    0.51831   0.22132   0.09864   1.000
    C400    C    0.46003   0.26382   0.11438   1.000
    C401    C    0.96024   0.26308   0.11379   1.000
    C402    C    0.40798   0.19483   0.11025   1.000
    C403    C    0.90827   0.19398   0.10944   1.000
    C404    C    0.41548   0.09119   0.09133   1.000
    C405    C    0.91597   0.09034   0.09056   1.000
    C406    C    0.47509   0.05532   0.07689   1.000
    C407    C    0.97572   0.05462   0.07639   1.000
    C408    C    0.00779   0.43724   0.13327   1.000
    C409    C    0.50782   0.43793   0.13356   1.000
    C410    C    0.45635   0.37349   0.13199   1.000
    C411    C    0.95639   0.37269   0.13145   1.000
    C412    C    0.37292   0.74617   0.58373   1.000
    C413    C    0.87269   0.74587   0.58382   1.000
    C414    C    0.47476   0.61880   0.58067   1.000
    C415    C    0.97425   0.61787   0.58047   1.000
    C416    C    0.37312   0.75402   0.91615   1.000
    C417    C    0.87270   0.75428   0.91609   1.000
    C418    C    0.47482   0.88161   0.91916   1.000
    C419    C    0.97426   0.88218   0.91948   1.000
    C420    C    0.12733   0.25417   0.41615   1.000
    C421    C    0.62709   0.25387   0.41623   1.000
    C422    C    0.02577   0.38217   0.41950   1.000
    C423    C    0.52525   0.38124   0.41930   1.000
    C424    C    0.12732   0.24577   0.08380   1.000
    C425    C    0.62690   0.24603   0.08382   1.000
    C426    C    0.02576   0.11786   0.08040   1.000
    C427    C    0.52520   0.11843   0.08081   1.000
    C428    C    0.30866   0.36972   0.51807   1.000
    C429    C    0.80775   0.36915   0.51799   1.000
    C430    C    0.40775   0.42194   0.53754   1.000
    C431    C    0.90670   0.42173   0.53758   1.000
    C432    C    0.32773   0.60647   0.49836   1.000
    C433    C    0.82662   0.60651   0.49840   1.000
    C434    C    0.41551   0.67075   0.46447   1.000
    C435    C    0.91443   0.67091   0.46454   1.000
    C436    C    0.26390   0.04056   0.07959   1.000
    C437    C    0.76271   0.04093   0.07960   1.000
    C438    C    0.17041   0.02766   0.12006   1.000
    C439    C    0.66917   0.02737   0.12001   1.000
    C440    C    0.30847   0.13048   0.98189   1.000
    C441    C    0.80780   0.13093   0.98200   1.000
    C442    C    0.40777   0.07748   0.96381   1.000
    C443    C    0.90673   0.07829   0.96236   1.000
    C444    C    0.32753   0.89331   0.00151   1.000
    C445    C    0.82665   0.89355   0.00159   1.000
    C446    C    0.41529   0.82920   0.03553   1.000
    C447    C    0.91446   0.82912   0.03544   1.000
    C448    C    0.26389   0.45943   0.42030   1.000
    C449    C    0.76277   0.45905   0.42037   1.000
    C450    C    0.17036   0.47232   0.37993   1.000
    C451    C    0.66930   0.47240   0.37990   1.000
    C452    C    0.19226   0.63089   0.48198   1.000
    C453    C    0.69135   0.63031   0.48190   1.000
    C454    C    0.09331   0.57831   0.46239   1.000
    C455    C    0.59227   0.57810   0.46243   1.000
    C456    C    0.17339   0.39352   0.50157   1.000
    C457    C    0.67229   0.39356   0.50161   1.000
    C458    C    0.08559   0.32912   0.53543   1.000
    C459    C    0.58451   0.32928   0.53550   1.000
    C460    C    0.23730   0.95911   0.92032   1.000
    C461    C    0.73612   0.95949   0.92030   1.000
    C462    C    0.33085   0.97266   0.87996   1.000
    C463    C    0.82961   0.97236   0.87991   1.000
    C464    C    0.19221   0.86912   0.01797   1.000
    C465    C    0.69155   0.86955   0.01808   1.000
    C466    C    0.09328   0.92174   0.03761   1.000
    C467    C    0.59224   0.92255   0.03615   1.000
    C468    C    0.17336   0.10648   0.99838   1.000
    C469    C    0.67248   0.10673   0.99846   1.000
    C470    C    0.08555   0.17091   0.96452   1.000
    C471    C    0.58473   0.17084   0.96444   1.000
    C472    C    0.23724   0.54098   0.57960   1.000
    C473    C    0.73613   0.54061   0.57962   1.000
    C474    C    0.33071   0.52763   0.62007   1.000
    C475    C    0.82966   0.52771   0.62004   1.000
    O476    O    0.34260   0.86712   0.01928   1.000
    O477    O    0.35553   0.90966   0.97084   1.000
    O478    O    0.84175   0.86725   0.01929   1.000
    O479    O    0.85455   0.90980   0.97085   1.000
    O480    O    0.91082   0.48365   0.00817   1.000
    O481    O    0.94964   0.53730   0.01067   1.000
    O482    O    0.95385   0.44310   0.99784   1.000
    O483    O    0.41089   0.48294   0.00839   1.000
    O484    O    0.44956   0.53695   0.01072   1.000
    O485    O    0.45401   0.44274   0.99803   1.000
    O486    O    0.63203   0.71059   0.01217   1.000
    O487    O    0.13256   0.71004   0.01283   1.000
    O488    O    0.49555   0.59423   0.01264   1.000
    O489    O    0.54057   0.65531   0.01481   1.000
    O490    O    0.54601   0.55730   0.00191   1.000
    O491    O    0.99581   0.59422   0.01280   1.000
    O492    O    0.04099   0.65498   0.01517   1.000
    O493    O    0.04618   0.55694   0.00213   1.000
    O494    O    0.44910   0.62117   0.02133   1.000
    O495    O    0.94938   0.62146   0.02140   1.000
    O496    O    0.58331   0.72383   0.01858   1.000
    O497    O    0.62352   0.79553   0.02099   1.000
    O498    O    0.08388   0.72335   0.01899   1.000
    O499    O    0.12422   0.79496   0.02148   1.000
    O500    O    0.16332   0.86035   0.02160   1.000
    O501    O    0.22138   0.93451   0.00898   1.000
    O502    O    0.66259   0.86086   0.02136   1.000
    O503    O    0.72050   0.93483   0.00904   1.000
    O504    O    0.53613   0.73997   0.02448   1.000
    O505    O    0.03673   0.73956   0.02506   1.000
    O506    O    0.61293   0.88737   0.03040   1.000
    O507    O    0.11385   0.88666   0.03142   1.000
    O508    O    0.88565   0.83504   0.03622   1.000
    O509    O    0.38647   0.83506   0.03629   1.000
    O510    O    0.60437   0.99829   0.04798   1.000
    O511    O    0.83744   0.81716   0.05733   1.000
    O512    O    0.33822   0.81714   0.05733   1.000
    O513    O    0.10542   0.99785   0.04870   1.000
    O514    O    0.07167   0.09592   0.07010   1.000
    O515    O    0.12244   0.15987   0.07180   1.000
    O516    O    0.14399   0.05081   0.08993   1.000
    O517    O    0.14547   0.09022   0.02909   1.000
    O518    O    0.57085   0.09623   0.07031   1.000
    O519    O    0.62170   0.16003   0.07182   1.000
    O520    O    0.64283   0.05070   0.08991   1.000
    O521    O    0.64449   0.09038   0.02914   1.000
    O522    O    0.97940   0.01413   0.06867   1.000
    O523    O    0.47869   0.01484   0.06912   1.000
    O524    O    0.69904   0.28707   0.07691   1.000
    O525    O    0.19945   0.28702   0.07726   1.000
    O526    O    0.29379   0.79962   0.07596   1.000
    O527    O    0.79305   0.79963   0.07603   1.000
    O528    O    0.00074   0.08624   0.07840   1.000
    O529    O    0.94584   0.07248   0.08347   1.000
    O530    O    0.50015   0.08688   0.07885   1.000
    O531    O    0.44528   0.07326   0.08411   1.000
    O532    O    0.33205   0.76471   0.09642   1.000
    O533    O    0.83135   0.76473   0.09644   1.000
    O534    O    0.24681   0.03071   0.09895   1.000
    O535    O    0.25722   0.02023   0.03979   1.000
    O536    O    0.74561   0.03092   0.09895   1.000
    O537    O    0.75608   0.02052   0.03980   1.000
    O538    O    0.02221   0.16929   0.08933   1.000
    O539    O    0.52176   0.16988   0.08972   1.000
    O540    O    0.15280   0.27618   0.08403   1.000
    O541    O    0.10007   0.26729   0.09199   1.000
    O542    O    0.65241   0.27637   0.08390   1.000
    O543    O    0.59972   0.26765   0.09206   1.000
    O544    O    0.67766   0.36075   0.09248   1.000
    O545    O    0.17792   0.36062   0.09277   1.000
    O546    O    0.89591   0.06414   0.08794   1.000
    O547    O    0.39537   0.06508   0.08875   1.000
    O548    O    0.91212   0.14216   0.10000   1.000
    O549    O    0.41173   0.14301   0.10079   1.000
    O550    O    0.04573   0.25477   0.09923   1.000
    O551    O    0.98944   0.24190   0.10603   1.000
    O552    O    0.54542   0.25529   0.09948   1.000
    O553    O    0.48917   0.24257   0.10651   1.000
    O554    O    0.07011   0.34302   0.10894   1.000
    O555    O    0.56993   0.34350   0.10905   1.000
    O556    O    0.69879   0.43826   0.10094   1.000
    O557    O    0.64976   0.43751   0.10935   1.000
    O558    O    0.19893   0.43817   0.10134   1.000
    O559    O    0.14986   0.43725   0.10958   1.000
    O560    O    0.93425   0.22853   0.11162   1.000
    O561    O    0.88519   0.20857   0.11477   1.000
    O562    O    0.43400   0.22933   0.11232   1.000
    O563    O    0.38495   0.20950   0.11568   1.000
    O564    O    0.95831   0.31788   0.12262   1.000
    O565    O    0.87004   0.73288   0.11460   1.000
    O566    O    0.37070   0.73287   0.11462   1.000
    O567    O    0.45819   0.31866   0.12318   1.000
    O568    O    0.33015   0.70994   0.13651   1.000
    O569    O    0.82951   0.70999   0.13655   1.000
    O570    O    0.09478   0.42855   0.11778   1.000
    O571    O    0.03760   0.41723   0.12548   1.000
    O572    O    0.59471   0.42898   0.11776   1.000
    O573    O    0.62118   0.50224   0.12403   1.000
    O574    O    0.53756   0.41783   0.12568   1.000
    O575    O    0.12115   0.50187   0.12419   1.000
    O576    O    0.69884   0.02414   0.11916   1.000
    O577    O    0.74508   0.00367   0.14176   1.000
    O578    O    0.20006   0.02426   0.11919   1.000
    O579    O    0.24626   0.00358   0.14177   1.000
    O580    O    0.98209   0.40496   0.13236   1.000
    O581    O    0.93372   0.38856   0.13717   1.000
    O582    O    0.48209   0.40571   0.13278   1.000
    O583    O    0.43373   0.38943   0.13779   1.000
    O584    O    0.00591   0.47917   0.13956   1.000
    O585    O    0.50600   0.47989   0.13983   1.000
    O586    O    0.73421   0.70129   0.15114   1.000
    O587    O    0.23482   0.70107   0.15129   1.000
    O588    O    0.28249   0.68297   0.16150   1.000
    O589    O    0.33367   0.65880   0.17636   1.000
    O590    O    0.78188   0.68309   0.16157   1.000
    O591    O    0.83305   0.65884   0.17641   1.000
    O592    O    0.78689   0.98536   0.16355   1.000
    O593    O    0.28806   0.98513   0.16356   1.000
    O594    O    0.23729   0.65859   0.18665   1.000
    O595    O    0.74696   0.97011   0.18656   1.000
    O596    O    0.24810   0.97008   0.18656   1.000
    O597    O    0.73667   0.65879   0.18677   1.000
    O598    O    0.37756   0.63377   0.19228   1.000
    O599    O    0.87693   0.63374   0.19232   1.000
    O600    O    0.33965   0.61060   0.21644   1.000
    O601    O    0.83901   0.61063   0.21648   1.000
    O602    O    0.20797   0.95492   0.20764   1.000
    O603    O    0.70685   0.95479   0.20764   1.000
    O604    O    0.24791   0.93286   0.23087   1.000
    O605    O    0.74681   0.93284   0.23087   1.000
    O606    O    0.19941   0.63556   0.21093   1.000
    O607    O    0.24334   0.61156   0.22710   1.000
    O608    O    0.69879   0.63582   0.21107   1.000
    O609    O    0.74271   0.61174   0.22722   1.000
    O610    O    0.34254   0.93044   0.24781   1.000
    O611    O    0.84146   0.93060   0.24741   1.000
    O612    O    0.29451   0.58774   0.24203   1.000
    O613    O    0.34221   0.56911   0.25197   1.000
    O614    O    0.79387   0.58782   0.24208   1.000
    O615    O    0.84156   0.56913   0.25200   1.000
    O616    O    0.24763   0.56712   0.26908   1.000
    O617    O    0.74695   0.56725   0.26914   1.000
    O618    O    0.79376   0.91213   0.25742   1.000
    O619    O    0.74259   0.88846   0.27281   1.000
    O620    O    0.29484   0.91206   0.25784   1.000
    O621    O    0.24366   0.88849   0.27282   1.000
    O622    O    0.83892   0.88918   0.28297   1.000
    O623    O    0.34000   0.88901   0.28333   1.000
    O624    O    0.69868   0.86458   0.28903   1.000
    O625    O    0.19974   0.86471   0.28906   1.000
    O626    O    0.73658   0.84148   0.31329   1.000
    O627    O    0.23764   0.84152   0.31329   1.000
    O628    O    0.20773   0.54515   0.29237   1.000
    O629    O    0.24792   0.52991   0.31338   1.000
    O630    O    0.70700   0.54533   0.29238   1.000
    O631    O    0.74711   0.52993   0.31344   1.000
    O632    O    0.37794   0.86569   0.30743   1.000
    O633    O    0.33405   0.84090   0.32343   1.000
    O634    O    0.87685   0.86596   0.30755   1.000
    O635    O    0.83297   0.84107   0.32353   1.000
    O636    O    0.28793   0.51479   0.33632   1.000
    O637    O    0.24617   0.49638   0.35817   1.000
    O638    O    0.78180   0.81705   0.33844   1.000
    O639    O    0.73413   0.79906   0.34869   1.000
    O640    O    0.28287   0.81698   0.33842   1.000
    O641    O    0.23519   0.79910   0.34869   1.000
    O642    O    0.78704   0.51462   0.33644   1.000
    O643    O    0.74521   0.49628   0.35822   1.000
    O644    O    0.33052   0.78985   0.36336   1.000
    O645    O    0.82944   0.79002   0.36340   1.000
    O646    O    0.50635   0.01971   0.36038   1.000
    O647    O    0.00593   0.02083   0.36045   1.000
    O648    O    0.43398   0.10995   0.36252   1.000
    O649    O    0.93375   0.11150   0.36282   1.000
    O650    O    0.48236   0.09381   0.36746   1.000
    O651    O    0.53786   0.08184   0.37449   1.000
    O652    O    0.98211   0.09506   0.36763   1.000
    O653    O    0.03761   0.08275   0.37452   1.000
    O654    O    0.45838   0.18080   0.37709   1.000
    O655    O    0.95833   0.18217   0.37737   1.000
    O656    O    0.12115   0.99802   0.37592   1.000
    O657    O    0.62156   0.99761   0.37610   1.000
    O658    O    0.38502   0.28977   0.38471   1.000
    O659    O    0.88520   0.29153   0.38521   1.000
    O660    O    0.69896   0.47570   0.38078   1.000
    O661    O    0.64292   0.44917   0.41000   1.000
    O662    O    0.20001   0.47572   0.38079   1.000
    O663    O    0.14396   0.44917   0.41002   1.000
    O664    O    0.24678   0.46927   0.40097   1.000
    O665    O    0.74570   0.46902   0.40102   1.000
    O666    O    0.09478   0.07138   0.38228   1.000
    O667    O    0.14986   0.06262   0.39052   1.000
    O668    O    0.59503   0.07082   0.38236   1.000
    O669    O    0.57017   0.15626   0.39107   1.000
    O670    O    0.07012   0.15695   0.39109   1.000
    O671    O    0.65009   0.06241   0.39070   1.000
    O672    O    0.37106   0.76685   0.38526   1.000
    O673    O    0.33238   0.73511   0.40346   1.000
    O674    O    0.86998   0.76709   0.38533   1.000
    O675    O    0.83130   0.73529   0.40351   1.000
    O676    O    0.43411   0.27006   0.38799   1.000
    O677    O    0.48930   0.25697   0.39371   1.000
    O678    O    0.93427   0.27155   0.38837   1.000
    O679    O    0.98946   0.25814   0.39396   1.000
    O680    O    0.41176   0.35634   0.39952   1.000
    O681    O    0.91213   0.35793   0.39998   1.000
    O682    O    0.19892   0.06166   0.39879   1.000
    O683    O    0.17792   0.13925   0.40730   1.000
    O684    O    0.69912   0.06176   0.39909   1.000
    O685    O    0.67794   0.13924   0.40752   1.000
    O686    O    0.54559   0.24441   0.40066   1.000
    O687    O    0.59992   0.23219   0.40802   1.000
    O688    O    0.04575   0.24524   0.40078   1.000
    O689    O    0.10008   0.23267   0.40799   1.000
    O690    O    0.52184   0.32977   0.41042   1.000
    O691    O    0.02222   0.33074   0.41061   1.000
    O692    O    0.39534   0.43426   0.41154   1.000
    O693    O    0.44528   0.42623   0.41611   1.000
    O694    O    0.89592   0.43596   0.41203   1.000
    O695    O    0.94585   0.42760   0.41649   1.000
    O696    O    0.15281   0.22373   0.41598   1.000
    O697    O    0.19946   0.21284   0.42280   1.000
    O698    O    0.65263   0.22358   0.41614   1.000
    O699    O    0.69927   0.21299   0.42309   1.000
    O700    O    0.12245   0.34010   0.42813   1.000
    O701    O    0.62182   0.33991   0.42816   1.000
    O702    O    0.50017   0.41275   0.42128   1.000
    O703    O    0.57090   0.40359   0.42970   1.000
    O704    O    0.00075   0.41381   0.42154   1.000
    O705    O    0.07167   0.40410   0.42981   1.000
    O706    O    0.25723   0.47977   0.46015   1.000
    O707    O    0.75610   0.47948   0.46017   1.000
    O708    O    0.29409   0.70031   0.42390   1.000
    O709    O    0.33849   0.68274   0.44256   1.000
    O710    O    0.79301   0.70042   0.42395   1.000
    O711    O    0.83740   0.68289   0.44263   1.000
    O712    O    0.47867   0.48479   0.43098   1.000
    O713    O    0.97940   0.48595   0.43129   1.000
    O714    O    0.60441   0.50202   0.45127   1.000
    O715    O    0.64441   0.40975   0.47086   1.000
    O716    O    0.10544   0.50217   0.45126   1.000
    O717    O    0.14548   0.40977   0.47085   1.000
    O718    O    0.11389   0.61338   0.46856   1.000
    O719    O    0.61292   0.61307   0.46855   1.000
    O720    O    0.38670   0.66485   0.46367   1.000
    O721    O    0.34281   0.63271   0.48062   1.000
    O722    O    0.88562   0.66500   0.46374   1.000
    O723    O    0.84171   0.63280   0.48067   1.000
    O724    O    0.53616   0.76036   0.47487   1.000
    O725    O    0.03678   0.76048   0.47494   1.000
    O726    O    0.44909   0.87903   0.47851   1.000
    O727    O    0.94941   0.87860   0.47854   1.000
    O728    O    0.66246   0.63918   0.47828   1.000
    O729    O    0.62350   0.70469   0.47840   1.000
    O730    O    0.16337   0.63967   0.47835   1.000
    O731    O    0.12426   0.70507   0.47849   1.000
    O732    O    0.58333   0.77642   0.48089   1.000
    O733    O    0.54058   0.84491   0.48476   1.000
    O734    O    0.08392   0.77669   0.48099   1.000
    O735    O    0.04102   0.84506   0.48482   1.000
    O736    O    0.72040   0.56511   0.49094   1.000
    O737    O    0.22142   0.56551   0.49098   1.000
    O738    O    0.63204   0.78955   0.48699   1.000
    O739    O    0.13260   0.78999   0.48713   1.000
    O740    O    0.49555   0.90594   0.48713   1.000
    O741    O    0.44954   0.96316   0.48929   1.000
    O742    O    0.99583   0.90583   0.48717   1.000
    O743    O    0.94965   0.96276   0.48929   1.000
    O744    O    0.91082   0.01643   0.49173   1.000
    O745    O    0.41086   0.01713   0.49180   1.000
    O746    O    0.54602   0.94280   0.49783   1.000
    O747    O    0.04618   0.94309   0.49787   1.000
    O748    O    0.95384   0.05695   0.50211   1.000
    O749    O    0.45399   0.05724   0.50214   1.000
    O750    O    0.35560   0.59028   0.52912   1.000
    O751    O    0.85453   0.59026   0.52913   1.000
    O752    O    0.77859   0.43453   0.50899   1.000
    O753    O    0.74278   0.52026   0.53980   1.000
    O754    O    0.27962   0.43492   0.50903   1.000
    O755    O    0.24391   0.52055   0.53980   1.000
    O756    O    0.15830   0.36723   0.51930   1.000
    O757    O    0.65720   0.36733   0.51936   1.000
    O758    O    0.58916   0.98291   0.50817   1.000
    O759    O    0.55048   0.03688   0.51069   1.000
    O760    O    0.08920   0.98362   0.50822   1.000
    O761    O    0.05037   0.03729   0.51069   1.000
    O762    O    0.86742   0.21005   0.51284   1.000
    O763    O    0.36798   0.21049   0.51298   1.000
    O764    O    0.00419   0.09421   0.51281   1.000
    O765    O    0.95900   0.15498   0.51516   1.000
    O766    O    0.50447   0.09410   0.51284   1.000
    O767    O    0.45944   0.15513   0.51522   1.000
    O768    O    0.05061   0.12144   0.52143   1.000
    O769    O    0.55093   0.12101   0.52144   1.000
    O770    O    0.91610   0.22335   0.51899   1.000
    O771    O    0.87576   0.29497   0.52148   1.000
    O772    O    0.41669   0.22362   0.51908   1.000
    O773    O    0.37652   0.29534   0.52156   1.000
    O774    O    0.83665   0.36037   0.52161   1.000
    O775    O    0.33755   0.36085   0.52168   1.000
    O776    O    0.96324   0.23956   0.52503   1.000
    O777    O    0.46386   0.23968   0.52509   1.000
    O778    O    0.88612   0.38666   0.53141   1.000
    O779    O    0.38709   0.38696   0.53141   1.000
    O780    O    0.11440   0.33504   0.53623   1.000
    O781    O    0.61331   0.33519   0.53630   1.000
    O782    O    0.16262   0.31715   0.55734   1.000
    O783    O    0.66153   0.31730   0.55740   1.000
    O784    O    0.39561   0.49801   0.54870   1.000
    O785    O    0.89457   0.49787   0.54871   1.000
    O786    O    0.92834   0.59594   0.57016   1.000
    O787    O    0.87757   0.65994   0.57183   1.000
    O788    O    0.85605   0.55086   0.58994   1.000
    O789    O    0.42912   0.59644   0.57027   1.000
    O790    O    0.37820   0.66013   0.57180   1.000
    O791    O    0.35709   0.55086   0.58997   1.000
    O792    O    0.02062   0.51410   0.56868   1.000
    O793    O    0.52135   0.51526   0.56898   1.000
    O794    O    0.30074   0.78705   0.57687   1.000
    O795    O    0.80056   0.78720   0.57713   1.000
    O796    O    0.20701   0.29962   0.57602   1.000
    O797    O    0.70593   0.29974   0.57607   1.000
    O798    O    0.99927   0.58624   0.57843   1.000
    O799    O    0.05417   0.57245   0.58347   1.000
    O800    O    0.49985   0.58730   0.57869   1.000
    O801    O    0.55474   0.57382   0.58386   1.000
    O802    O    0.16872   0.26476   0.59644   1.000
    O803    O    0.66764   0.26494   0.59651   1.000
    O804    O    0.25432   0.53101   0.59895   1.000
    O805    O    0.75324   0.53077   0.59897   1.000
    O806    O    0.97780   0.66930   0.58936   1.000
    O807    O    0.47817   0.67027   0.58954   1.000
    O808    O    0.34739   0.77646   0.58382   1.000
    O809    O    0.40010   0.76785   0.59195   1.000
    O810    O    0.84721   0.77631   0.58396   1.000
    O811    O    0.89994   0.76737   0.59198   1.000
    O812    O    0.32207   0.86080   0.59241   1.000
    O813    O    0.82210   0.86079   0.59264   1.000
    O814    O    0.10410   0.56409   0.58794   1.000
    O815    O    0.60468   0.56579   0.58843   1.000
    O816    O    0.08789   0.64211   0.60000   1.000
    O817    O    0.58825   0.64370   0.60044   1.000
    O818    O    0.95427   0.75480   0.59919   1.000
    O819    O    0.01056   0.74190   0.60601   1.000
    O820    O    0.45443   0.75563   0.59928   1.000
    O821    O    0.51072   0.74307   0.60624   1.000
    O822    O    0.92990   0.84309   0.60888   1.000
    O823    O    0.42984   0.84378   0.60889   1.000
    O824    O    0.30089   0.93828   0.60085   1.000
    O825    O    0.34992   0.93763   0.60925   1.000
    O826    O    0.80109   0.93838   0.60118   1.000
    O827    O    0.85016   0.93742   0.60945   1.000
    O828    O    0.06575   0.72849   0.61160   1.000
    O829    O    0.11482   0.70851   0.61477   1.000
    O830    O    0.56591   0.72998   0.61197   1.000
    O831    O    0.61499   0.71028   0.61526   1.000
    O832    O    0.04168   0.81787   0.62260   1.000
    O833    O    0.13004   0.23296   0.61462   1.000
    O834    O    0.54164   0.81925   0.62288   1.000
    O835    O    0.62896   0.23320   0.61471   1.000
    O836    O    0.17058   0.21003   0.63655   1.000
    O837    O    0.66950   0.21020   0.63661   1.000
    O838    O    0.40498   0.92922   0.61761   1.000
    O839    O    0.37845   0.00243   0.62388   1.000
    O840    O    0.46215   0.91820   0.62548   1.000
    O841    O    0.90524   0.92866   0.61768   1.000
    O842    O    0.96240   0.91729   0.62542   1.000
    O843    O    0.87887   0.00202   0.62405   1.000
    O844    O    0.30105   0.52433   0.61919   1.000
    O845    O    0.25481   0.50375   0.64175   1.000
    O846    O    0.80000   0.52431   0.61918   1.000
    O847    O    0.75384   0.50366   0.64180   1.000
    O848    O    0.01791   0.90497   0.63232   1.000
    O849    O    0.06627   0.88853   0.63714   1.000
    O850    O    0.51765   0.90623   0.63251   1.000
    O851    O    0.56603   0.89009   0.63745   1.000
    O852    O    0.99409   0.97920   0.63949   1.000
    O853    O    0.49366   0.98033   0.63960   1.000
    O854    O    0.76483   0.20096   0.65127   1.000
    O855    O    0.26589   0.20099   0.65127   1.000
    O856    O    0.21822   0.18300   0.66152   1.000
    O857    O    0.16705   0.15898   0.67644   1.000
    O858    O    0.71715   0.18307   0.66156   1.000
    O859    O    0.66597   0.15916   0.67650   1.000
    O860    O    0.21298   0.48542   0.66351   1.000
    O861    O    0.71209   0.48526   0.66363   1.000
    O862    O    0.26344   0.15857   0.68668   1.000
    O863    O    0.25291   0.47011   0.68649   1.000
    O864    O    0.76238   0.15853   0.68668   1.000
    O865    O    0.75210   0.47013   0.68659   1.000
    O866    O    0.12317   0.13410   0.69242   1.000
    O867    O    0.62208   0.13436   0.69249   1.000
    O868    O    0.16110   0.11087   0.71655   1.000
    O869    O    0.66002   0.11104   0.71660   1.000
    O870    O    0.79229   0.45490   0.70760   1.000
    O871    O    0.29302   0.45471   0.70756   1.000
    O872    O    0.25307   0.43280   0.73080   1.000
    O873    O    0.75239   0.43293   0.73089   1.000
    O874    O    0.80027   0.13535   0.71092   1.000
    O875    O    0.75635   0.11157   0.72715   1.000
    O876    O    0.30134   0.13547   0.71094   1.000
    O877    O    0.25743   0.11159   0.72715   1.000
    O878    O    0.15846   0.43092   0.74793   1.000
    O879    O    0.65781   0.43094   0.74799   1.000
    O880    O    0.20626   0.08792   0.74211   1.000
    O881    O    0.15856   0.06945   0.75211   1.000
    O882    O    0.70518   0.08800   0.74213   1.000
    O883    O    0.65748   0.06961   0.75216   1.000
    O884    O    0.75211   0.06719   0.76911   1.000
    O885    O    0.25320   0.06721   0.76911   1.000
    O886    O    0.20615   0.41223   0.75787   1.000
    O887    O    0.25731   0.38832   0.77275   1.000
    O888    O    0.70551   0.41232   0.75794   1.000
    O889    O    0.75669   0.38849   0.77283   1.000
    O890    O    0.16101   0.38942   0.78348   1.000
    O891    O    0.66038   0.38945   0.78353   1.000
    O892    O    0.30123   0.36423   0.78890   1.000
    O893    O    0.80061   0.36450   0.78900   1.000
    O894    O    0.26335   0.34126   0.81320   1.000
    O895    O    0.76274   0.34146   0.81329   1.000
    O896    O    0.29317   0.04526   0.79233   1.000
    O897    O    0.25306   0.02993   0.81341   1.000
    O898    O    0.79205   0.04513   0.79229   1.000
    O899    O    0.75192   0.02997   0.81341   1.000
    O900    O    0.12309   0.36631   0.80765   1.000
    O901    O    0.16697   0.34121   0.82356   1.000
    O902    O    0.62246   0.36628   0.80769   1.000
    O903    O    0.66635   0.34125   0.82361   1.000
    O904    O    0.21814   0.31696   0.83840   1.000
    O905    O    0.26581   0.29876   0.84858   1.000
    O906    O    0.21313   0.01469   0.83637   1.000
    O907    O    0.25494   0.99637   0.85821   1.000
    O908    O    0.71196   0.01492   0.83641   1.000
    O909    O    0.75375   0.99646   0.85821   1.000
    O910    O    0.71753   0.31709   0.83847   1.000
    O911    O    0.76521   0.29898   0.84868   1.000
    O912    O    0.17051   0.29006   0.86342   1.000
    O913    O    0.66987   0.29011   0.86346   1.000
    O914    O    0.49402   0.52016   0.86014   1.000
    O915    O    0.99411   0.52086   0.86042   1.000
    O916    O    0.56629   0.61061   0.86214   1.000
    O917    O    0.06630   0.61147   0.86281   1.000
    O918    O    0.51793   0.59433   0.86716   1.000
    O919    O    0.46246   0.58221   0.87429   1.000
    O920    O    0.01793   0.59507   0.86762   1.000
    O921    O    0.96242   0.58280   0.87449   1.000
    O922    O    0.54183   0.68139   0.87670   1.000
    O923    O    0.04171   0.68215   0.87735   1.000
    O924    O    0.87887   0.49817   0.87579   1.000
    O925    O    0.37884   0.49781   0.87594   1.000
    O926    O    0.61507   0.79055   0.88429   1.000
    O927    O    0.11483   0.79147   0.88520   1.000
    O928    O    0.79995   0.97577   0.88079   1.000
    O929    O    0.85602   0.94921   0.91001   1.000
    O930    O    0.30117   0.97589   0.88082   1.000
    O931    O    0.35719   0.94933   0.91006   1.000
    O932    O    0.75321   0.96933   0.90098   1.000
    O933    O    0.25440   0.96911   0.90099   1.000
    O934    O    0.90524   0.57149   0.88218   1.000
    O935    O    0.85016   0.56279   0.89038   1.000
    O936    O    0.40531   0.57107   0.88221   1.000
    O937    O    0.43009   0.65655   0.89092   1.000
    O938    O    0.35026   0.56254   0.89061   1.000
    O939    O    0.92991   0.65702   0.89103   1.000
    O940    O    0.12998   0.26717   0.88536   1.000
    O941    O    0.16867   0.23531   0.90352   1.000
    O942    O    0.62932   0.26718   0.88535   1.000
    O943    O    0.66797   0.23533   0.90355   1.000
    O944    O    0.56602   0.77071   0.88761   1.000
    O945    O    0.51085   0.75747   0.89341   1.000
    O946    O    0.06577   0.77151   0.88836   1.000
    O947    O    0.01058   0.75814   0.89394   1.000
    O948    O    0.58829   0.85703   0.89918   1.000
    O949    O    0.08790   0.85788   0.89997   1.000
    O950    O    0.80109   0.56187   0.89863   1.000
    O951    O    0.82210   0.63943   0.90719   1.000
    O952    O    0.30123   0.56179   0.89903   1.000
    O953    O    0.32236   0.63930   0.90748   1.000
    O954    O    0.45460   0.74475   0.90050   1.000
    O955    O    0.40030   0.73240   0.90790   1.000
    O956    O    0.95429   0.74527   0.90074   1.000
    O957    O    0.89995   0.73275   0.90794   1.000
    O958    O    0.47827   0.83017   0.91024   1.000
    O959    O    0.97781   0.83075   0.91059   1.000
    O960    O    0.60465   0.93496   0.91082   1.000
    O961    O    0.55474   0.92679   0.91582   1.000
    O962    O    0.10411   0.93590   0.91202   1.000
    O963    O    0.05418   0.92756   0.91649   1.000
    O964    O    0.84722   0.72387   0.91590   1.000
    O965    O    0.80057   0.71302   0.92271   1.000
    O966    O    0.34761   0.72368   0.91607   1.000
    O967    O    0.30098   0.71298   0.92306   1.000
    O968    O    0.87757   0.84017   0.92810   1.000
    O969    O    0.37832   0.84001   0.92816   1.000
    O970    O    0.49987   0.91317   0.92108   1.000
    O971    O    0.42917   0.90381   0.92966   1.000
    O972    O    0.99928   0.91380   0.92152   1.000
    O973    O    0.92835   0.90412   0.92979   1.000
    O974    O    0.74279   0.97980   0.96015   1.000
    O975    O    0.24393   0.97951   0.96015   1.000
    O976    O    0.20696   0.20041   0.92392   1.000
    O977    O    0.16257   0.18288   0.94261   1.000
    O978    O    0.70623   0.20043   0.92401   1.000
    O979    O    0.66181   0.18290   0.94264   1.000
    O980    O    0.52133   0.98520   0.93081   1.000
    O981    O    0.02062   0.98592   0.93129   1.000
    O982    O    0.89459   0.00218   0.95124   1.000
    O983    O    0.39565   0.00175   0.95198   1.000
    O984    O    0.88616   0.11338   0.96854   1.000
    O985    O    0.61355   0.16498   0.96368   1.000
    O986    O    0.65742   0.13292   0.98069   1.000
    O987    O    0.11436   0.16499   0.96372   1.000
    O988    O    0.15827   0.13278   0.98065   1.000
    O989    O    0.38709   0.11267   0.96956   1.000
    O990    O    0.96329   0.26048   0.97491   1.000
    O991    O    0.46389   0.26007   0.97549   1.000
    O992    O    0.05065   0.37858   0.97855   1.000
    O993    O    0.55092   0.37888   0.97859   1.000
    O994    O    0.83669   0.13969   0.97837   1.000
    O995    O    0.87580   0.20508   0.97849   1.000
    O996    O    0.33743   0.13917   0.97860   1.000
    O997    O    0.37650   0.20451   0.97897   1.000
    O998    O    0.91614   0.27669   0.98098   1.000
    O999    O    0.95904   0.34505   0.98480   1.000
    O1000   O    0.41671   0.27621   0.98139   1.000
    O1001   O    0.45945   0.34473   0.98513   1.000
    O1002   O    0.27951   0.06519   0.99094   1.000
    O1003   O    0.77863   0.06552   0.99100   1.000
    O1004   O    0.86746   0.29000   0.98714   1.000
    O1005   O    0.36798   0.28945   0.98735   1.000
    O1006   O    0.50447   0.40582   0.98725   1.000
    O1007   O    0.55046   0.46309   0.98921   1.000
    O1008   O    0.00422   0.40581   0.98715   1.000
    O1009   O    0.05038   0.46274   0.98929   1.000
    O1010   O    0.58913   0.51711   0.99158   1.000
    O1011   O    0.08920   0.51639   0.99180   1.000
    O1012   O    0.28915   0.55329   0.49918   1.000
    O1013   O    0.78803   0.55321   0.49919   1.000
    O1014   O    0.28904   0.94661   0.00074   1.000
    O1015   O    0.78805   0.94683   0.00080   1.000
    O1016   O    0.21198   0.44682   0.50078   1.000
    O1017   O    0.71086   0.44673   0.50079   1.000
    O1018   O    0.21196   0.05319   0.99918   1.000
    O1019   O    0.71097   0.05342   0.99923   1.000
loop_
    _geom_bond_atom_site_label_1
    _geom_bond_atom_site_label_2
    _geom_bond_distance
    _geom_bond_site_symmetry_2
    _ccdc_geom_bond_type
    C444   O476      0.65728      .   S
    C250   O476      0.65728      .   S
    C444   O477      1.02519  1_554   S
    C2     O477      1.02519      .   S
    C445   O478      0.65710      .   S
    C251   O478      0.65710      .   S
    C445   O479      1.02499  1_554   S
    C3     O479      1.02499      .   S
    C267   O480      0.54529      .   S
    C75    O480      0.54529      .   S
    C267   O481      0.69310      .   S
    C385   O481      0.69310      .   S
    C267   O482      0.70478  1_554   S
    C263   O482      0.70478      .   S
    C266   O483      0.54526      .   S
    C74    O483      0.54526      .   S
    C266   O484      0.69290      .   S
    C384   O484      0.69290      .   S
    C266   O485      0.70472  1_554   S
    C262   O485      0.70472      .   S
    C149   O486      0.54834      .   S
    C379   O486      0.54834      .   S
    C148   O487      0.54576      .   S
    C378   O487      0.54576      .   S
    C383   O488      0.70690      .   S
    C384   O488      0.70690      .   S
    C383   O489      0.72814      .   S
    C381   O489      0.72814      .   S
    C383   O490      0.70451      .   S
    C387   O490      0.70451  1_556   S
    C382   O491      0.70700  1_455   S
    C385   O491      0.70700      .   S
    C382   O492      0.72844      .   S
    C380   O492      0.72844      .   S
    C382   O493      0.70478      .   S
    C386   O493      0.70478  1_556   S
    C384   O494      0.54526      .   S
    C152   O494      0.54526      .   S
    C385   O495      0.54532      .   S
    C153   O495      0.54532      .   S
    C379   O496      0.67507      .   S
    C381   O496      0.67507      .   S
    C379   O497      0.74194      .   S
    C377   O497      0.74194      .   S
    C378   O498      0.67529      .   S
    C380   O498      0.67529      .   S
    C378   O499      0.74258      .   S
    C376   O499      0.74258      .   S
    C464   O500      0.63844      .   S
    C376   O500      0.63844      .   S
    C464   O501      1.05753      .   S
    C10    O501      1.05753  1_556   S
    C465   O502      0.63847      .   S
    C377   O502      0.63847      .   S
    C465   O503      1.05399      .   S
    C11    O503      1.05399  1_545   S
    C381   O504      0.54639      .   S
    C151   O504      0.54639      .   S
    C380   O505      0.54646      .   S
    C150   O505      0.54646      .   S
    C377   O506      0.64002      .   S
    C467   O506      0.64002      .   S
    C376   O507      0.64000      .   S
    C466   O507      0.64000      .   S
    C447   O508      0.62436      .   S
    C251   O508      0.62436      .   S
    C446   O509      0.62437      .   S
    C250   O509      0.62437      .   S
    C467   O510      1.01974      .   S
    C7     O510      1.01974  1_545   S
    C251   O511      0.74122      .   S
    C253   O511      0.74122      .   S
    C250   O512      0.74083      .   S
    C252   O512      0.74083      .   S
    C466   O513      1.01896      .   S
    C6     O513      1.01896  1_545   S
    C6     O514      1.05774      .   S
    C426   O514      1.05774      .   S
    C6     O515      1.11272      .   S
    C424   O515      1.11272      .   S
    C6     O516      1.01626      .   S
    C438   O516      1.01626      .   S
    C6     O517      1.02437      .   S
    C468   O517      1.02437  1_556   S
    C7     O518      1.05466      .   S
    C427   O518      1.05466      .   S
    C7     O519      1.11471      .   S
    C425   O519      1.11471      .   S
    C7     O520      1.01533      .   S
    C439   O520      1.01533      .   S
    C7     O521      1.02520      .   S
    C469   O521      1.02520  1_556   S
    C167   O522      0.54468  1_565   S
    C407   O522      0.54468      .   S
    C166   O523      0.54476  1_565   S
    C406   O523      0.54476      .   S
    C157   O524      0.54618      .   S
    C389   O524      0.54618      .   S
    C156   O525      0.54617      .   S
    C388   O525      0.54617      .   S
    C64    O526      0.54491      .   S
    C252   O526      0.54491      .   S
    C65    O527      0.54493      .   S
    C253   O527      0.54493      .   S
    C407   O528      0.66824  1_655   S
    C426   O528      0.66824      .   S
    C407   O529      0.70339      .   S
    C405   O529      0.70339      .   S
    C406   O530      0.66824      .   S
    C427   O530      0.66824      .   S
    C406   O531      0.70332      .   S
    C404   O531      0.70332      .   S
    C252   O532      0.67513      .   S
    C254   O532      0.67513      .   S
    C253   O533      0.67520      .   S
    C255   O533      0.67520      .   S
    C436   O534      0.63855      .   S
    C172   O534      0.63855      .   S
    C436   O535      1.07372      .   S
    C10    O535      1.07372  1_566   S
    C437   O536      0.63882      .   S
    C173   O536      0.63882      .   S
    C437   O537      1.07367      .   S
    C11    O537      1.07367      .   S
    C426   O538      0.68102      .   S
    C398   O538      0.68102      .   S
    C427   O539      0.68076      .   S
    C399   O539      0.68076      .   S
    C424   O540      0.66603      .   S
    C388   O540      0.66603      .   S
    C424   O541      0.67725      .   S
    C396   O541      0.67725      .   S
    C425   O542      0.66602      .   S
    C389   O542      0.66602      .   S
    C425   O543      0.67687      .   S
    C397   O543      0.67687      .   S
    C389   O544      0.70395      .   S
    C391   O544      0.70395      .   S
    C388   O545      0.70391      .   S
    C390   O545      0.70391      .   S
    C165   O546      0.54435      .   S
    C405   O546      0.54435      .   S
    C164   O547      0.54441      .   S
    C404   O547      0.54441      .   S
    C405   O548      0.69061      .   S
    C403   O548      0.69061      .   S
    C404   O549      0.69055      .   S
    C402   O549      0.69055      .   S
    C398   O550      0.72049      .   S
    C396   O550      0.72049      .   S
    C398   O551      0.70918  1_455   S
    C401   O551      0.70918      .   S
    C399   O552      0.72048      .   S
    C397   O552      0.72048      .   S
    C399   O553      0.70908      .   S
    C400   O553      0.70908      .   S
    C396   O554      0.71027      .   S
    C394   O554      0.71027      .   S
    C397   O555      0.71029      .   S
    C395   O555      0.71029      .   S
    C159   O556      0.54490      .   S
    C391   O556      0.54490      .   S
    C391   O557      0.69186      .   S
    C393   O557      0.69186      .   S
    C390   O558      0.54490      .   S
    C158   O558      0.54490      .   S
    C390   O559      0.69188      .   S
    C392   O559      0.69188      .   S
    C403   O560      0.70683      .   S
    C401   O560      0.70683      .   S
    C403   O561      0.54565      .   S
    C163   O561      0.54565      .   S
    C402   O562      0.70684      .   S
    C400   O562      0.70684      .   S
    C402   O563      0.54565      .   S
    C162   O563      0.54565      .   S
    C401   O564      0.71666      .   S
    C411   O564      0.71666      .   S
    C67    O565      0.54752      .   S
    C255   O565      0.54752      .   S
    C66    O566      0.54752      .   S
    C254   O566      0.54752      .   S
    C400   O567      0.71667      .   S
    C410   O567      0.71667      .   S
    C254   O568      0.72689      .   S
    C244   O568      0.72689      .   S
    C255   O569      0.72696      .   S
    C245   O569      0.72696      .   S
    C394   O570      0.70613      .   S
    C392   O570      0.70613      .   S
    C394   O571      0.71569      .   S
    C408   O571      0.71569      .   S
    C393   O572      0.70613      .   S
    C395   O572      0.70613      .   S
    C393   O573      0.54536      .   S
    C161   O573      0.54536      .   S
    C395   O574      0.71566      .   S
    C409   O574      0.71566      .   S
    C392   O575      0.54537      .   S
    C160   O575      0.54537      .   S
    C173   O576      0.63994      .   S
    C439   O576      0.63994      .   S
    C173   O577      0.74349      .   S
    C175   O577      0.74349  1_565   S
    C172   O578      0.63968      .   S
    C438   O578      0.63968      .   S
    C172   O579      0.74333      .   S
    C174   O579      0.74333  1_565   S
    C411   O580      0.68355      .   S
    C408   O580      0.68355  1_455   S
    C411   O581      0.54566      .   S
    C171   O581      0.54566      .   S
    C410   O582      0.68355      .   S
    C409   O582      0.68355      .   S
    C410   O583      0.54568      .   S
    C170   O583      0.54568      .   S
    C408   O584      0.54535      .   S
    C168   O584      0.54535      .   S
    C409   O585      0.54536      .   S
    C169   O585      0.54536      .   S
    C59    O586      0.54958      .   S
    C243   O586      0.54958      .   S
    C58    O587      0.54523      .   S
    C242   O587      0.54523      .   S
    C244   O588      0.70532      .   S
    C242   O588      0.70532      .   S
    C244   O589      0.70622      .   S
    C246   O589      0.70622      .   S
    C245   O590      0.70533      .   S
    C243   O590      0.70533      .   S
    C245   O591      0.70622      .   S
    C247   O591      0.70622      .   S
    C13    O592      0.54511      .   S
    C175   O592      0.54511      .   S
    C12    O593      0.54507      .   S
    C174   O593      0.54507      .   S
    C242   O594      0.69325      .   S
    C240   O594      0.69325      .   S
    C175   O595      0.67480      .   S
    C177   O595      0.67480      .   S
    C174   O596      0.67480      .   S
    C176   O596      0.67480      .   S
    C243   O597      0.69402      .   S
    C241   O597      0.69402      .   S
    C60    O598      0.54599      .   S
    C246   O598      0.54599      .   S
    C61    O599      0.54601      .   S
    C247   O599      0.54601      .   S
    C246   O600      0.69292      .   S
    C248   O600      0.69292      .   S
    C247   O601      0.69277      .   S
    C249   O601      0.69277      .   S
    C14    O602      0.54710      .   S
    C176   O602      0.54710      .   S
    C15    O603      0.54711      .   S
    C177   O603      0.54711      .   S
    C176   O604      0.72861      .   S
    C178   O604      0.72861      .   S
    C177   O605      0.72864      .   S
    C179   O605      0.72864      .   S
    C240   O606      0.54603      .   S
    C56    O606      0.54603      .   S
    C240   O607      0.70698      .   S
    C238   O607      0.70698      .   S
    C241   O608      0.54588      .   S
    C57    O608      0.54588      .   S
    C241   O609      0.70624      .   S
    C239   O609      0.70624      .   S
    C22    O610      0.54498      .   S
    C188   O610      0.54498      .   S
    C23    O611      0.53706      .   S
    C189   O611      0.53706      .   S
    C248   O612      0.70500      .   S
    C238   O612      0.70500      .   S
    C248   O613      0.54489      .   S
    C62    O613      0.54489      .   S
    C249   O614      0.70508      .   S
    C239   O614      0.70508      .   S
    C249   O615      0.54480      .   S
    C63    O615      0.54480      .   S
    C238   O616      0.72860      .   S
    C236   O616      0.72860      .   S
    C239   O617      0.72864      .   S
    C237   O617      0.72864      .   S
    C179   O618      0.70340      .   S
    C189   O618      0.70340      .   S
    C179   O619      0.70629      .   S
    C181   O619      0.70629      .   S
    C178   O620      0.70502      .   S
    C188   O620      0.70502      .   S
    C178   O621      0.70624      .   S
    C180   O621      0.70624      .   S
    C189   O622      0.70256      .   S
    C187   O622      0.70256      .   S
    C188   O623      0.69203      .   S
    C186   O623      0.69203      .   S
    C17    O624      0.54589      .   S
    C181   O624      0.54589      .   S
    C16    O625      0.54589      .   S
    C180   O625      0.54589      .   S
    C181   O626      0.69397      .   S
    C183   O626      0.69397      .   S
    C180   O627      0.69405      .   S
    C182   O627      0.69405      .   S
    C236   O628      0.54711      .   S
    C54    O628      0.54711      .   S
    C236   O629      0.67485      .   S
    C234   O629      0.67485      .   S
    C237   O630      0.54711      .   S
    C55    O630      0.54711      .   S
    C237   O631      0.67489      .   S
    C235   O631      0.67489      .   S
    C186   O632      0.54613      .   S
    C20    O632      0.54613      .   S
    C186   O633      0.70701      .   S
    C184   O633      0.70701      .   S
    C187   O634      0.54603      .   S
    C21    O634      0.54603      .   S
    C187   O635      0.70632      .   S
    C185   O635      0.70632      .   S
    C234   O636      0.54507      .   S
    C52    O636      0.54507      .   S
    C234   O637      0.74330      .   S
    C232   O637      0.74330      .   S
    C183   O638      0.70533      .   S
    C185   O638      0.70533      .   S
    C183   O639      0.54512      .   S
    C19    O639      0.54512      .   S
    C182   O640      0.70532      .   S
    C184   O640      0.70532      .   S
    C182   O641      0.54497      .   S
    C18    O641      0.54497      .   S
    C235   O642      0.54507      .   S
    C53    O642      0.54507      .   S
    C235   O643      0.74343      .   S
    C233   O643      0.74343      .   S
    C184   O644      0.72686      .   S
    C194   O644      0.72686      .   S
    C185   O645      0.72655      .   S
    C195   O645      0.72655      .   S
    C129   O646      0.54531  1_565   S
    C349   O646      0.54531      .   S
    C128   O647      0.54505  1_565   S
    C348   O647      0.54505      .   S
    C130   O648      0.54566      .   S
    C350   O648      0.54566      .   S
    C131   O649      0.54569      .   S
    C351   O649      0.54569      .   S
    C349   O650      0.68355      .   S
    C350   O650      0.68355      .   S
    C349   O651      0.71565      .   S
    C335   O651      0.71565      .   S
    C348   O652      0.68356  1_455   S
    C351   O652      0.68356      .   S
    C348   O653      0.71588      .   S
    C334   O653      0.71588      .   S
    C350   O654      0.71667      .   S
    C340   O654      0.71667      .   S
    C351   O655      0.71667      .   S
    C341   O655      0.71667      .   S
    C120   O656      0.54532      .   S
    C332   O656      0.54532  1_545   S
    C121   O657      0.54528      .   S
    C333   O657      0.54528  1_545   S
    C122   O658      0.54565      .   S
    C342   O658      0.54565      .   S
    C123   O659      0.54565      .   S
    C343   O659      0.54565      .   S
    C451   O660      0.63978      .   S
    C233   O660      0.63978      .   S
    C451   O661      1.01549      .   S
    C5     O661      1.01549      .   S
    C450   O662      0.63968      .   S
    C232   O662      0.63968      .   S
    C450   O663      1.01528      .   S
    C4     O663      1.01528      .   S
    C232   O664      0.63804      .   S
    C448   O664      0.63804      .   S
    C233   O665      0.63852      .   S
    C449   O665      0.63852      .   S
    C332   O666      0.70614      .   S
    C334   O666      0.70614      .   S
    C332   O667      0.69188      .   S
    C330   O667      0.69188      .   S
    C335   O668      0.70614      .   S
    C333   O668      0.70614      .   S
    C335   O669      0.71024      .   S
    C337   O669      0.71024      .   S
    C334   O670      0.71031      .   S
    C336   O670      0.71031      .   S
    C333   O671      0.69156      .   S
    C331   O671      0.69156      .   S
    C194   O672      0.54752      .   S
    C26    O672      0.54752      .   S
    C194   O673      0.67516      .   S
    C192   O673      0.67516      .   S
    C195   O674      0.54754      .   S
    C27    O674      0.54754      .   S
    C195   O675      0.67549      .   S
    C193   O675      0.67549      .   S
    C340   O676      0.70684      .   S
    C342   O676      0.70684      .   S
    C340   O677      0.70910      .   S
    C339   O677      0.70910      .   S
    C341   O678      0.70684      .   S
    C343   O678      0.70684      .   S
    C341   O679      0.70918      .   S
    C338   O679      0.70918  1_455   S
    C342   O680      0.69064      .   S
    C344   O680      0.69064      .   S
    C343   O681      0.69059      .   S
    C345   O681      0.69059      .   S
    C118   O682      0.54490      .   S
    C330   O682      0.54490      .   S
    C330   O683      0.70391      .   S
    C328   O683      0.70391      .   S
    C331   O684      0.54493      .   S
    C119   O684      0.54493      .   S
    C331   O685      0.70424      .   S
    C329   O685      0.70424      .   S
    C337   O686      0.72056      .   S
    C339   O686      0.72056      .   S
    C337   O687      0.67690      .   S
    C421   O687      0.67690      .   S
    C336   O688      0.72053      .   S
    C338   O688      0.72053      .   S
    C336   O689      0.67694      .   S
    C420   O689      0.67694      .   S
    C339   O690      0.68067      .   S
    C423   O690      0.68067      .   S
    C338   O691      0.68071      .   S
    C422   O691      0.68071      .   S
    C344   O692      0.54444      .   S
    C124   O692      0.54444      .   S
    C344   O693      0.70328      .   S
    C346   O693      0.70328      .   S
    C345   O694      0.54436      .   S
    C125   O694      0.54436      .   S
    C345   O695      0.70339      .   S
    C347   O695      0.70339      .   S
    C328   O696      0.66605      .   S
    C420   O696      0.66605      .   S
    C328   O697      0.54616      .   S
    C116   O697      0.54616      .   S
    C329   O698      0.66604      .   S
    C421   O698      0.66604      .   S
    C329   O699      0.54619      .   S
    C117   O699      0.54619      .   S
    C420   O700      1.11294      .   S
    C4     O700      1.11294      .   S
    C421   O701      1.11471      .   S
    C5     O701      1.11471      .   S
    C423   O702      0.66830      .   S
    C346   O702      0.66830      .   S
    C423   O703      1.05463      .   S
    C5     O703      1.05463      .   S
    C422   O704      0.66833      .   S
    C347   O704      0.66833  1_655   S
    C422   O705      1.05773      .   S
    C4     O705      1.05773      .   S
    C448   O706      1.07469      .   S
    C8     O706      1.07469      .   S
    C449   O707      1.07394      .   S
    C9     O707      1.07394      .   S
    C192   O708      0.54491      .   S
    C24    O708      0.54491      .   S
    C192   O709      0.74079      .   S
    C190   O709      0.74079      .   S
    C193   O710      0.54492      .   S
    C25    O710      0.54492      .   S
    C193   O711      0.74086      .   S
    C191   O711      0.74086      .   S
    C346   O712      0.54480      .   S
    C126   O712      0.54480      .   S
    C347   O713      0.54473      .   S
    C127   O713      0.54473      .   S
    C5     O714      1.01887      .   S
    C455   O714      1.01887      .   S
    C5     O715      1.02481      .   S
    C457   O715      1.02481      .   S
    C4     O716      1.01934      .   S
    C454   O716      1.01934      .   S
    C4     O717      1.02488      .   S
    C456   O717      1.02488      .   S
    C454   O718      0.63999      .   S
    C316   O718      0.63999      .   S
    C455   O719      0.64002      .   S
    C317   O719      0.64002      .   S
    C190   O720      0.62434      .   S
    C434   O720      0.62434      .   S
    C190   O721      0.65740      .   S
    C432   O721      0.65740      .   S
    C191   O722      0.62439      .   S
    C435   O722      0.62439      .   S
    C191   O723      0.65754      .   S
    C433   O723      0.65754      .   S
    C111   O724      0.54644      .   S
    C321   O724      0.54644      .   S
    C110   O725      0.54647      .   S
    C320   O725      0.54647      .   S
    C112   O726      0.54523      .   S
    C324   O726      0.54523      .   S
    C113   O727      0.54536      .   S
    C325   O727      0.54536      .   S
    C317   O728      0.63847      .   S
    C453   O728      0.63847      .   S
    C317   O729      0.74187      .   S
    C319   O729      0.74187      .   S
    C316   O730      0.63846      .   S
    C452   O730      0.63846      .   S
    C316   O731      0.74259      .   S
    C318   O731      0.74259      .   S
    C321   O732      0.67503      .   S
    C319   O732      0.67503      .   S
    C321   O733      0.72790      .   S
    C323   O733      0.72790      .   S
    C320   O734      0.67527      .   S
    C318   O734      0.67527      .   S
    C320   O735      0.72843      .   S
    C322   O735      0.72843      .   S
    C453   O736      1.05420      .   S
    C9     O736      1.05420      .   S
    C452   O737      1.05721      .   S
    C8     O737      1.05721      .   S
    C319   O738      0.54574      .   S
    C109   O738      0.54574      .   S
    C318   O739      0.54576      .   S
    C108   O739      0.54576      .   S
    C324   O740      0.70681      .   S
    C323   O740      0.70681      .   S
    C324   O741      0.69282      .   S
    C206   O741      0.69282  1_545   S
    C325   O742      0.70699      .   S
    C322   O742      0.70699  1_455   S
    C325   O743      0.69304      .   S
    C207   O743      0.69304  1_545   S
    C35    O744      0.54538      .   S
    C207   O744      0.54538      .   S
    C34    O745      0.54525      .   S
    C206   O745      0.54525      .   S
    C323   O746      0.70458      .   S
    C327   O746      0.70458      .   S
    C322   O747      0.70470      .   S
    C326   O747      0.70470      .   S
    C207   O748      0.70473      .   S
    C203   O748      0.70473      .   S
    C206   O749      0.70461      .   S
    C202   O749      0.70461      .   S
    C432   O750      1.02479      .   S
    C0     O750      1.02479      .   S
    C433   O751      1.02487      .   S
    C1     O751      1.02487      .   S
    C9     O752      1.05718      .   S
    C429   O752      1.05718      .   S
    C9     O753      1.07408      .   S
    C473   O753      1.07408      .   S
    C8     O754      1.05422      .   S
    C428   O754      1.05422      .   S
    C8     O755      1.07395      .   S
    C472   O755      1.07395      .   S
    C456   O756      0.65751      .   S
    C310   O756      0.65751      .   S
    C457   O757      0.65735      .   S
    C311   O757      0.65735      .   S
    C327   O758      0.54527      .   S
    C115   O758      0.54527      .   S
    C327   O759      0.69282  1_565   S
    C205   O759      0.69282      .   S
    C326   O760      0.54530      .   S
    C114   O760      0.54530      .   S
    C326   O761      0.69306  1_565   S
    C204   O761      0.69306      .   S
    C29    O762      0.54578      .   S
    C199   O762      0.54578      .   S
    C28    O763      0.54573      .   S
    C198   O763      0.54573      .   S
    C203   O764      0.70699  1_655   S
    C204   O764      0.70699      .   S
    C203   O765      0.72841      .   S
    C201   O765      0.72841      .   S
    C202   O766      0.70680      .   S
    C205   O766      0.70680      .   S
    C202   O767      0.72788      .   S
    C200   O767      0.72788      .   S
    C204   O768      0.54533      .   S
    C32    O768      0.54533      .   S
    C205   O769      0.54505      .   S
    C33    O769      0.54505      .   S
    C199   O770      0.67527      .   S
    C201   O770      0.67527      .   S
    C199   O771      0.74258      .   S
    C197   O771      0.74258      .   S
    C198   O772      0.67502      .   S
    C200   O772      0.67502      .   S
    C198   O773      0.74184      .   S
    C196   O773      0.74184      .   S
    C429   O774      0.63847      .   S
    C197   O774      0.63847      .   S
    C428   O775      0.63844      .   S
    C196   O775      0.63844      .   S
    C201   O776      0.54647      .   S
    C31    O776      0.54647      .   S
    C200   O777      0.54639      .   S
    C30    O777      0.54639      .   S
    C197   O778      0.63996      .   S
    C431   O778      0.63996      .   S
    C196   O779      0.64002      .   S
    C430   O779      0.64002      .   S
    C458   O780      0.62439      .   S
    C310   O780      0.62439      .   S
    C459   O781      0.62436      .   S
    C311   O781      0.62436      .   S
    C310   O782      0.74086      .   S
    C312   O782      0.74086      .   S
    C311   O783      0.74078      .   S
    C313   O783      0.74078      .   S
    C430   O784      1.01883      .   S
    C0     O784      1.01883      .   S
    C431   O785      1.01931      .   S
    C1     O785      1.01931      .   S
    C1     O786      1.05784      .   S
    C415   O786      1.05784      .   S
    C1     O787      1.11299      .   S
    C413   O787      1.11299      .   S
    C1     O788      1.01525      .   S
    C475   O788      1.01525      .   S
    C0     O789      1.05468      .   S
    C414   O789      1.05468      .   S
    C0     O790      1.11475      .   S
    C412   O790      1.11475      .   S
    C0     O791      1.01548      .   S
    C474   O791      1.01548      .   S
    C46    O792      0.54477      .   S
    C226   O792      0.54477      .   S
    C47    O793      0.54481      .   S
    C227   O793      0.54481      .   S
    C36    O794      0.54620      .   S
    C208   O794      0.54620      .   S
    C37    O795      0.54595      .   S
    C209   O795      0.54595      .   S
    C104   O796      0.54491      .   S
    C312   O796      0.54491      .   S
    C105   O797      0.54491      .   S
    C313   O797      0.54491      .   S
    C226   O798      0.66834  1_455   S
    C415   O798      0.66834      .   S
    C226   O799      0.70338      .   S
    C224   O799      0.70338      .   S
    C227   O800      0.66829      .   S
    C414   O800      0.66829      .   S
    C227   O801      0.70331      .   S
    C225   O801      0.70331      .   S
    C312   O802      0.67509      .   S
    C314   O802      0.67509      .   S
    C313   O803      0.67515      .   S
    C315   O803      0.67515      .   S
    C472   O804      0.63842      .   S
    C352   O804      0.63842      .   S
    C473   O805      0.63856      .   S
    C353   O805      0.63856      .   S
    C415   O806      0.68070      .   S
    C219   O806      0.68070      .   S
    C414   O807      0.68050      .   S
    C218   O807      0.68050      .   S
    C412   O808      0.66604      .   S
    C208   O808      0.66604      .   S
    C412   O809      0.67688      .   S
    C216   O809      0.67688      .   S
    C413   O810      0.66605      .   S
    C209   O810      0.66605      .   S
    C413   O811      0.67694      .   S
    C217   O811      0.67694      .   S
    C208   O812      0.70397      .   S
    C210   O812      0.70397      .   S
    C209   O813      0.70413      .   S
    C211   O813      0.70413      .   S
    C44    O814      0.54437      .   S
    C224   O814      0.54437      .   S
    C45    O815      0.54444      .   S
    C225   O815      0.54444      .   S
    C224   O816      0.69058      .   S
    C222   O816      0.69058      .   S
    C225   O817      0.69061      .   S
    C223   O817      0.69061      .   S
    C219   O818      0.72052      .   S
    C217   O818      0.72052      .   S
    C219   O819      0.70917  1_655   S
    C220   O819      0.70917      .   S
    C218   O820      0.72058      .   S
    C216   O820      0.72058      .   S
    C218   O821      0.70924      .   S
    C221   O821      0.70924      .   S
    C217   O822      0.71030      .   S
    C215   O822      0.71030      .   S
    C216   O823      0.71027      .   S
    C214   O823      0.71027      .   S
    C38    O824      0.54492      .   S
    C210   O824      0.54492      .   S
    C210   O825      0.69186      .   S
    C212   O825      0.69186      .   S
    C211   O826      0.54490      .   S
    C39    O826      0.54490      .   S
    C211   O827      0.69187      .   S
    C213   O827      0.69187      .   S
    C222   O828      0.70684      .   S
    C220   O828      0.70684      .   S
    C222   O829      0.54569      .   S
    C42    O829      0.54569      .   S
    C223   O830      0.70684      .   S
    C221   O830      0.70684      .   S
    C223   O831      0.54567      .   S
    C43    O831      0.54567      .   S
    C220   O832      0.71666      .   S
    C230   O832      0.71666      .   S
    C106   O833      0.54753      .   S
    C314   O833      0.54753      .   S
    C221   O834      0.71669      .   S
    C231   O834      0.71669      .   S
    C107   O835      0.54752      .   S
    C315   O835      0.54752      .   S
    C314   O836      0.72695      .   S
    C304   O836      0.72695      .   S
    C315   O837      0.72685      .   S
    C305   O837      0.72685      .   S
    C212   O838      0.70614      .   S
    C214   O838      0.70614      .   S
    C212   O839      0.54528  1_565   S
    C40    O839      0.54528      .   S
    C214   O840      0.71567      .   S
    C228   O840      0.71567      .   S
    C215   O841      0.70614      .   S
    C213   O841      0.70614      .   S
    C215   O842      0.71565      .   S
    C229   O842      0.71565      .   S
    C213   O843      0.54530  1_565   S
    C41    O843      0.54530      .   S
    C352   O844      0.63978      .   S
    C474   O844      0.63978      .   S
    C352   O845      0.74352      .   S
    C354   O845      0.74352      .   S
    C353   O846      0.63969      .   S
    C475   O846      0.63969      .   S
    C353   O847      0.74328      .   S
    C355   O847      0.74328      .   S
    C230   O848      0.68355      .   S
    C229   O848      0.68355  1_655   S
    C230   O849      0.54565      .   S
    C50    O849      0.54565      .   S
    C231   O850      0.68354      .   S
    C228   O850      0.68354      .   S
    C231   O851      0.54564      .   S
    C51    O851      0.54564      .   S
    C229   O852      0.54530      .   S
    C49    O852      0.54530  1_545   S
    C228   O853      0.54532      .   S
    C48    O853      0.54532  1_545   S
    C99    O854      0.54523      .   S
    C303   O854      0.54523      .   S
    C98    O855      0.54521      .   S
    C302   O855      0.54521      .   S
    C304   O856      0.70531      .   S
    C302   O856      0.70531      .   S
    C304   O857      0.70623      .   S
    C306   O857      0.70623      .   S
    C305   O858      0.70532      .   S
    C303   O858      0.70532      .   S
    C305   O859      0.70619      .   S
    C307   O859      0.70619      .   S
    C132   O860      0.54510      .   S
    C354   O860      0.54510      .   S
    C133   O861      0.54510      .   S
    C355   O861      0.54510      .   S
    C302   O862      0.69408      .   S
    C300   O862      0.69408      .   S
    C354   O863      0.67424      .   S
    C356   O863      0.67424      .   S
    C303   O864      0.69405      .   S
    C301   O864      0.69405      .   S
    C355   O865      0.67485      .   S
    C357   O865      0.67485      .   S
    C100   O866      0.54600      .   S
    C306   O866      0.54600      .   S
    C101   O867      0.54600      .   S
    C307   O867      0.54600      .   S
    C306   O868      0.69302      .   S
    C308   O868      0.69302      .   S
    C307   O869      0.69298      .   S
    C309   O869      0.69298      .   S
    C135   O870      0.54711      .   S
    C357   O870      0.54711      .   S
    C134   O871      0.54710      .   S
    C356   O871      0.54710      .   S
    C356   O872      0.72926      .   S
    C358   O872      0.72926      .   S
    C357   O873      0.72859      .   S
    C359   O873      0.72859      .   S
    C301   O874      0.54589      .   S
    C97    O874      0.54589      .   S
    C301   O875      0.70624      .   S
    C299   O875      0.70624      .   S
    C300   O876      0.54589      .   S
    C96    O876      0.54589      .   S
    C300   O877      0.70628      .   S
    C298   O877      0.70628      .   S
    C142   O878      0.54497      .   S
    C368   O878      0.54497      .   S
    C143   O879      0.54497      .   S
    C369   O879      0.54497      .   S
    C308   O880      0.70506      .   S
    C298   O880      0.70506      .   S
    C308   O881      0.54498      .   S
    C102   O881      0.54498      .   S
    C309   O882      0.70503      .   S
    C299   O882      0.70503      .   S
    C309   O883      0.54497      .   S
    C103   O883      0.54497      .   S
    C299   O884      0.72862      .   S
    C297   O884      0.72862      .   S
    C298   O885      0.72864      .   S
    C296   O885      0.72864      .   S
    C358   O886      0.70502      .   S
    C368   O886      0.70502      .   S
    C358   O887      0.70625      .   S
    C360   O887      0.70625      .   S
    C359   O888      0.70500      .   S
    C369   O888      0.70500      .   S
    C359   O889      0.70624      .   S
    C361   O889      0.70624      .   S
    C368   O890      0.69309      .   S
    C366   O890      0.69309      .   S
    C369   O891      0.69293      .   S
    C367   O891      0.69293      .   S
    C136   O892      0.54589      .   S
    C360   O892      0.54589      .   S
    C137   O893      0.54589      .   S
    C361   O893      0.54589      .   S
    C360   O894      0.69403      .   S
    C362   O894      0.69403      .   S
    C361   O895      0.69410      .   S
    C363   O895      0.69410      .   S
    C296   O896      0.54711      .   S
    C94    O896      0.54711      .   S
    C296   O897      0.67481      .   S
    C294   O897      0.67481      .   S
    C297   O898      0.54709      .   S
    C95    O898      0.54709      .   S
    C297   O899      0.67480      .   S
    C295   O899      0.67480      .   S
    C366   O900      0.54600      .   S
    C140   O900      0.54600      .   S
    C366   O901      0.70622      .   S
    C364   O901      0.70622      .   S
    C367   O902      0.54598      .   S
    C141   O902      0.54598      .   S
    C367   O903      0.70622      .   S
    C365   O903      0.70622      .   S
    C362   O904      0.70532      .   S
    C364   O904      0.70532      .   S
    C362   O905      0.54517      .   S
    C138   O905      0.54517      .   S
    C294   O906      0.54500      .   S
    C92    O906      0.54500      .   S
    C294   O907      0.74348  1_545   S
    C292   O907      0.74348      .   S
    C295   O908      0.54507      .   S
    C93    O908      0.54507      .   S
    C295   O909      0.74332  1_545   S
    C293   O909      0.74332      .   S
    C363   O910      0.70533      .   S
    C365   O910      0.70533      .   S
    C363   O911      0.54522      .   S
    C139   O911      0.54522      .   S
    C364   O912      0.72696      .   S
    C374   O912      0.72696      .   S
    C365   O913      0.72689      .   S
    C375   O913      0.72689      .   S
    C88    O914      0.54536      .   S
    C288   O914      0.54536      .   S
    C89    O915      0.54536      .   S
    C289   O915      0.54536      .   S
    C91    O916      0.54540      .   S
    C291   O916      0.54540      .   S
    C90    O917      0.54564      .   S
    C290   O917      0.54564      .   S
    C288   O918      0.68353      .   S
    C291   O918      0.68353      .   S
    C288   O919      0.71566      .   S
    C274   O919      0.71566      .   S
    C289   O920      0.68354  1_655   S
    C290   O920      0.68354      .   S
    C289   O921      0.71567      .   S
    C275   O921      0.71567      .   S
    C291   O922      0.71663      .   S
    C281   O922      0.71663      .   S
    C290   O923      0.71667      .   S
    C280   O923      0.71667      .   S
    C81    O924      0.54530      .   S
    C273   O924      0.54530      .   S
    C80    O925      0.54537      .   S
    C272   O925      0.54537      .   S
    C83    O926      0.54566      .   S
    C283   O926      0.54566      .   S
    C82    O927      0.54566      .   S
    C282   O927      0.54566      .   S
    C463   O928      0.63968      .   S
    C293   O928      0.63968      .   S
    C463   O929      1.01563      .   S
    C3     O929      1.01563      .   S
    C462   O930      0.63993      .   S
    C292   O930      0.63993      .   S
    C462   O931      1.01535      .   S
    C2     O931      1.01535      .   S
    C293   O932      0.63773      .   S
    C461   O932      0.63773      .   S
    C292   O933      0.63832      .   S
    C460   O933      0.63832      .   S
    C273   O934      0.70613      .   S
    C275   O934      0.70613      .   S
    C273   O935      0.69193      .   S
    C271   O935      0.69193      .   S
    C274   O936      0.70613      .   S
    C272   O936      0.70613      .   S
    C274   O937      0.71030      .   S
    C276   O937      0.71030      .   S
    C272   O938      0.69186      .   S
    C270   O938      0.69186      .   S
    C275   O939      0.71028      .   S
    C277   O939      0.71028      .   S
    C374   O940      0.54751      .   S
    C146   O940      0.54751      .   S
    C374   O941      0.67511      .   S
    C372   O941      0.67511      .   S
    C375   O942      0.54752      .   S
    C147   O942      0.54752      .   S
    C375   O943      0.67512      .   S
    C373   O943      0.67512      .   S
    C281   O944      0.70692      .   S
    C283   O944      0.70692      .   S
    C281   O945      0.70942      .   S
    C278   O945      0.70942      .   S
    C280   O946      0.70682      .   S
    C282   O946      0.70682      .   S
    C280   O947      0.70920      .   S
    C279   O947      0.70920  1_655   S
    C283   O948      0.69057      .   S
    C285   O948      0.69057      .   S
    C282   O949      0.69058      .   S
    C284   O949      0.69058      .   S
    C79    O950      0.54489      .   S
    C271   O950      0.54489      .   S
    C271   O951      0.70392      .   S
    C269   O951      0.70392      .   S
    C270   O952      0.54491      .   S
    C78    O952      0.54491      .   S
    C270   O953      0.70395      .   S
    C268   O953      0.70395      .   S
    C276   O954      0.72049      .   S
    C278   O954      0.72049      .   S
    C276   O955      0.67686      .   S
    C416   O955      0.67686      .   S
    C277   O956      0.72049      .   S
    C279   O956      0.72049      .   S
    C277   O957      0.67693      .   S
    C417   O957      0.67693      .   S
    C278   O958      0.68076      .   S
    C418   O958      0.68076      .   S
    C279   O959      0.68065      .   S
    C419   O959      0.68065      .   S
    C285   O960      0.54335      .   S
    C85    O960      0.54335      .   S
    C285   O961      0.70305      .   S
    C287   O961      0.70305      .   S
    C284   O962      0.54437      .   S
    C84    O962      0.54437      .   S
    C284   O963      0.70341      .   S
    C286   O963      0.70341      .   S
    C269   O964      0.66603      .   S
    C417   O964      0.66603      .   S
    C269   O965      0.54614      .   S
    C77    O965      0.54614      .   S
    C268   O966      0.66602      .   S
    C416   O966      0.66602      .   S
    C268   O967      0.54618      .   S
    C76    O967      0.54618      .   S
    C417   O968      1.11269      .   S
    C3     O968      1.11269      .   S
    C416   O969      1.11459      .   S
    C2     O969      1.11459      .   S
    C418   O970      0.66818      .   S
    C287   O970      0.66818      .   S
    C418   O971      1.05467      .   S
    C2     O971      1.05467      .   S
    C419   O972      0.66832      .   S
    C286   O972      0.66832  1_455   S
    C419   O973      1.05789      .   S
    C3     O973      1.05789      .   S
    C461   O974      1.07479      .   S
    C11    O974      1.07479  1_544   S
    C460   O975      1.07439      .   S
    C10    O975      1.07439      .   S
    C372   O976      0.54491      .   S
    C144   O976      0.54491      .   S
    C372   O977      0.74089      .   S
    C370   O977      0.74089      .   S
    C373   O978      0.54491      .   S
    C145   O978      0.54491      .   S
    C373   O979      0.74085      .   S
    C371   O979      0.74085      .   S
    C287   O980      0.54508      .   S
    C87    O980      0.54508  1_545   S
    C286   O981      0.54473      .   S
    C86    O981      0.54473  1_545   S
    C3     O982      1.01919  1_565   S
    C443   O982      1.01919      .   S
    C2     O983      1.01977  1_565   S
    C442   O983      1.01977      .   S
    C443   O984      0.64000      .   S
    C257   O984      0.64000      .   S
    C371   O985      0.62438      .   S
    C471   O985      0.62438      .   S
    C371   O986      0.65727      .   S
    C469   O986      0.65727      .   S
    C370   O987      0.62436      .   S
    C470   O987      0.62436      .   S
    C370   O988      0.65758      .   S
    C468   O988      0.65758      .   S
    C442   O989      0.64000      .   S
    C256   O989      0.64000      .   S
    C71    O990      0.54646      .   S
    C261   O990      0.54646      .   S
    C70    O991      0.54639      .   S
    C260   O991      0.54639      .   S
    C72    O992      0.54522      .   S
    C264   O992      0.54522      .   S
    C73    O993      0.54496      .   S
    C265   O993      0.54496      .   S
    C257   O994      0.63843      .   S
    C441   O994      0.63843      .   S
    C257   O995      0.74261      .   S
    C259   O995      0.74261      .   S
    C256   O996      0.63848      .   S
    C440   O996      0.63848      .   S
    C256   O997      0.74197      .   S
    C258   O997      0.74197      .   S
    C261   O998      0.67528      .   S
    C259   O998      0.67528      .   S
    C261   O999      0.72845      .   S
    C263   O999      0.72845      .   S
    C260   O1000     0.67509      .   S
    C258   O1000     0.67509      .   S
    C260   O1001     0.72802      .   S
    C262   O1001     0.72802      .   S
    C440   O1002     1.05421      .   S
    C10    O1002     1.05421  1_565   S
    C441   O1003     1.05779      .   S
    C11    O1003     1.05779  1_554   S
    C259   O1004     0.54577      .   S
    C69    O1004     0.54577      .   S
    C258   O1005     0.54573      .   S
    C68    O1005     0.54573      .   S
    C265   O1006     0.70695      .   S
    C262   O1006     0.70695      .   S
    C265   O1007     0.69310      .   S
    C387   O1007     0.69310      .   S
    C264   O1008     0.70704      .   S
    C263   O1008     0.70704  1_655   S
    C264   O1009     0.69317      .   S
    C386   O1009     0.69317      .   S
    C155   O1010     0.54526      .   S
    C387   O1010     0.54526      .   S
    C154   O1011     0.54529      .   S
    C386   O1011     0.54529      .   S
    C432   O1012     1.06188      .   S
    C8     O1012     1.06188      .   S
    C433   O1013     1.06308      .   S
    C9     O1013     1.06308      .   S
    C444   O1014     1.06114      .   S
    C10    O1014     1.06114  1_556   S
    C445   O1015     1.06283      .   S
    C11    O1015     1.06283  1_545   S
    C456   O1016     1.06304      .   S
    C8     O1016     1.06304      .   S
    C457   O1017     1.06183      .   S
    C9     O1017     1.06183      .   S
    C468   O1018     1.06282      .   S
    C10    O1018     1.06282  1_565   S
    C469   O1019     1.06112      .   S
    C11    O1019     1.06112  1_554   S
