# CIF file generated by openbabel 2.4.90, see http://openbabel.sf.net
data_I
_chemical_name_common ''
_cell_length_a 21.511
_cell_length_b 12.442
_cell_length_c 26.091
_cell_angle_alpha 91.126
_cell_angle_beta 89.998
_cell_angle_gamma 89.989
_space_group_name_H-M_alt 'P 1'
_space_group_name_Hall 'P 1'
loop_
    _symmetry_equiv_pos_as_xyz
    x,y,z
loop_
    _atom_site_label
    _atom_site_type_symbol
    _atom_site_fract_x
    _atom_site_fract_y
    _atom_site_fract_z
    _atom_site_occupancy
    Zr0     Zr   0.38347   0.57409   0.55987   1.000
    Zr1     Zr   0.88244   0.57400   0.55985   1.000
    Zr2     Zr   0.38353   0.92600   0.94016   1.000
    Zr3     Zr   0.88244   0.92606   0.94011   1.000
    Zr4     Zr   0.11757   0.42602   0.44012   1.000
    Zr5     Zr   0.61655   0.42594   0.44010   1.000
    Zr6     Zr   0.11757   0.07397   0.05980   1.000
    Zr7     Zr   0.61649   0.07402   0.05981   1.000
    Zr8     Zr   0.25057   0.50012   0.49999   1.000
    Zr9     Zr   0.74944   0.49991   0.49998   1.000
    Zr10    Zr   0.25055   0.99990   0.99998   1.000
    Zr11    Zr   0.74946   0.00011   0.00000   1.000
    Zr12    Zr   0.22972   0.02086   0.11831   1.000
    Zr13    Zr   0.72852   0.02091   0.11830   1.000
    Zr14    Zr   0.35790   0.65895   0.46287   1.000
    Zr15    Zr   0.85681   0.65909   0.46294   1.000
    Zr16    Zr   0.36644   0.35199   0.52529   1.000
    Zr17    Zr   0.86555   0.35159   0.52524   1.000
    Zr18    Zr   0.22967   0.47912   0.38165   1.000
    Zr19    Zr   0.72863   0.47899   0.38166   1.000
    Zr20    Zr   0.35766   0.84093   0.03705   1.000
    Zr21    Zr   0.85684   0.84096   0.03700   1.000
    Zr22    Zr   0.36640   0.14786   0.97531   1.000
    Zr23    Zr   0.86559   0.14846   0.97473   1.000
    Zr24    Zr   0.27150   0.97912   0.88167   1.000
    Zr25    Zr   0.77030   0.97918   0.88166   1.000
    Zr26    Zr   0.14321   0.34095   0.53703   1.000
    Zr27    Zr   0.64212   0.34109   0.53710   1.000
    Zr28    Zr   0.13447   0.64845   0.47473   1.000
    Zr29    Zr   0.63358   0.64805   0.47467   1.000
    Zr30    Zr   0.27139   0.52104   0.61830   1.000
    Zr31    Zr   0.77035   0.52092   0.61832   1.000
    Zr32    Zr   0.14317   0.15908   0.96292   1.000
    Zr33    Zr   0.64236   0.15911   0.96292   1.000
    Zr34    Zr   0.13443   0.85158   0.02524   1.000
    Zr35    Zr   0.63362   0.85218   0.02465   1.000
    Zr36    Zr   0.30866   0.36972   0.51807   1.000
    Zr37    Zr   0.80775   0.36915   0.51799   1.000
    Zr38    Zr   0.40775   0.42194   0.53754   1.000
    Zr39    Zr   0.90670   0.42173   0.53758   1.000
    Zr40    Zr   0.32773   0.60647   0.49836   1.000
    Zr41    Zr   0.82662   0.60651   0.49840   1.000
    Zr42    Zr   0.41551   0.67075   0.46447   1.000
    Zr43    Zr   0.91443   0.67091   0.46454   1.000
    Zr44    Zr   0.26390   0.04056   0.07959   1.000
    Zr45    Zr   0.76271   0.04093   0.07960   1.000
    Zr46    Zr   0.17041   0.02766   0.12006   1.000
    Zr47    Zr   0.66917   0.02737   0.12001   1.000
    Zr48    Zr   0.30847   0.13048   0.98189   1.000
    Zr49    Zr   0.80780   0.13093   0.98200   1.000
    Zr50    Zr   0.40777   0.07748   0.96381   1.000
    Zr51    Zr   0.90673   0.07829   0.96236   1.000
    Zr52    Zr   0.32753   0.89331   0.00151   1.000
    Zr53    Zr   0.82665   0.89355   0.00159   1.000
    Zr54    Zr   0.41529   0.82920   0.03553   1.000
    Zr55    Zr   0.91446   0.82912   0.03544   1.000
    Zr56    Zr   0.26389   0.45943   0.42030   1.000
    Zr57    Zr   0.76277   0.45905   0.42037   1.000
    Zr58    Zr   0.17036   0.47232   0.37993   1.000
    Zr59    Zr   0.66930   0.47240   0.37990   1.000
    Zr60    Zr   0.19226   0.63089   0.48198   1.000
    Zr61    Zr   0.69135   0.63031   0.48190   1.000
    Zr62    Zr   0.09331   0.57831   0.46239   1.000
    Zr63    Zr   0.59227   0.57810   0.46243   1.000
    Zr64    Zr   0.17339   0.39352   0.50157   1.000
    Zr65    Zr   0.67229   0.39356   0.50161   1.000
    Zr66    Zr   0.08559   0.32912   0.53543   1.000
    Zr67    Zr   0.58451   0.32928   0.53550   1.000
    Zr68    Zr   0.23730   0.95911   0.92032   1.000
    Zr69    Zr   0.73612   0.95949   0.92030   1.000
    Zr70    Zr   0.33085   0.97266   0.87996   1.000
    Zr71    Zr   0.82961   0.97236   0.87991   1.000
    Zr72    Zr   0.19221   0.86912   0.01797   1.000
    Zr73    Zr   0.69155   0.86955   0.01808   1.000
    Zr74    Zr   0.09328   0.92174   0.03761   1.000
    Zr75    Zr   0.59224   0.92255   0.03615   1.000
    Zr76    Zr   0.17336   0.10648   0.99838   1.000
    Zr77    Zr   0.67248   0.10673   0.99846   1.000
    Zr78    Zr   0.08555   0.17091   0.96452   1.000
    Zr79    Zr   0.58473   0.17084   0.96444   1.000
    Zr80    Zr   0.23724   0.54098   0.57960   1.000
    Zr81    Zr   0.73613   0.54061   0.57962   1.000
    Zr82    Zr   0.33071   0.52763   0.62007   1.000
    Zr83    Zr   0.82966   0.52771   0.62004   1.000
    O84     O    0.34260   0.86712   0.01928   1.000
    O85     O    0.35553   0.90966   0.97084   1.000
    O86     O    0.84175   0.86725   0.01929   1.000
    O87     O    0.85455   0.90980   0.97085   1.000
    O88     O    0.16332   0.86035   0.02160   1.000
    O89     O    0.22138   0.93451   0.00898   1.000
    O90     O    0.66259   0.86086   0.02136   1.000
    O91     O    0.72050   0.93483   0.00904   1.000
    O92     O    0.61293   0.88737   0.03040   1.000
    O93     O    0.11385   0.88666   0.03142   1.000
    O94     O    0.88565   0.83504   0.03622   1.000
    O95     O    0.38647   0.83506   0.03629   1.000
    O96     O    0.60437   0.99829   0.04798   1.000
    O97     O    0.10542   0.99785   0.04870   1.000
    O98     O    0.14399   0.05081   0.08993   1.000
    O99     O    0.14547   0.09022   0.02909   1.000
    O100    O    0.64283   0.05070   0.08991   1.000
    O101    O    0.64449   0.09038   0.02914   1.000
    O102    O    0.24681   0.03071   0.09895   1.000
    O103    O    0.25722   0.02023   0.03979   1.000
    O104    O    0.74561   0.03092   0.09895   1.000
    O105    O    0.75608   0.02052   0.03980   1.000
    O106    O    0.69884   0.02414   0.11916   1.000
    O107    O    0.20006   0.02426   0.11919   1.000
    O108    O    0.69896   0.47570   0.38078   1.000
    O109    O    0.64292   0.44917   0.41000   1.000
    O110    O    0.20001   0.47572   0.38079   1.000
    O111    O    0.14396   0.44917   0.41002   1.000
    O112    O    0.24678   0.46927   0.40097   1.000
    O113    O    0.74570   0.46902   0.40102   1.000
    O114    O    0.25723   0.47977   0.46015   1.000
    O115    O    0.75610   0.47948   0.46017   1.000
    O116    O    0.60441   0.50202   0.45127   1.000
    O117    O    0.64441   0.40975   0.47086   1.000
    O118    O    0.10544   0.50217   0.45126   1.000
    O119    O    0.14548   0.40977   0.47085   1.000
    O120    O    0.11389   0.61338   0.46856   1.000
    O121    O    0.61292   0.61307   0.46855   1.000
    O122    O    0.38670   0.66485   0.46367   1.000
    O123    O    0.34281   0.63271   0.48062   1.000
    O124    O    0.88562   0.66500   0.46374   1.000
    O125    O    0.84171   0.63280   0.48067   1.000
    O126    O    0.66246   0.63918   0.47828   1.000
    O127    O    0.16337   0.63967   0.47835   1.000
    O128    O    0.72040   0.56511   0.49094   1.000
    O129    O    0.22142   0.56551   0.49098   1.000
    O130    O    0.35560   0.59028   0.52912   1.000
    O131    O    0.85453   0.59026   0.52913   1.000
    O132    O    0.77859   0.43453   0.50899   1.000
    O133    O    0.74278   0.52026   0.53980   1.000
    O134    O    0.27962   0.43492   0.50903   1.000
    O135    O    0.24391   0.52055   0.53980   1.000
    O136    O    0.15830   0.36723   0.51930   1.000
    O137    O    0.65720   0.36733   0.51936   1.000
    O138    O    0.83665   0.36037   0.52161   1.000
    O139    O    0.33755   0.36085   0.52168   1.000
    O140    O    0.88612   0.38666   0.53141   1.000
    O141    O    0.38709   0.38696   0.53141   1.000
    O142    O    0.11440   0.33504   0.53623   1.000
    O143    O    0.61331   0.33519   0.53630   1.000
    O144    O    0.39561   0.49801   0.54870   1.000
    O145    O    0.89457   0.49787   0.54871   1.000
    O146    O    0.85605   0.55086   0.58994   1.000
    O147    O    0.35709   0.55086   0.58997   1.000
    O148    O    0.25432   0.53101   0.59895   1.000
    O149    O    0.75324   0.53077   0.59897   1.000
    O150    O    0.30105   0.52433   0.61919   1.000
    O151    O    0.80000   0.52431   0.61918   1.000
    O152    O    0.79995   0.97577   0.88079   1.000
    O153    O    0.85602   0.94921   0.91001   1.000
    O154    O    0.30117   0.97589   0.88082   1.000
    O155    O    0.35719   0.94933   0.91006   1.000
    O156    O    0.75321   0.96933   0.90098   1.000
    O157    O    0.25440   0.96911   0.90099   1.000
    O158    O    0.74279   0.97980   0.96015   1.000
    O159    O    0.24393   0.97951   0.96015   1.000
    O160    O    0.89459   0.00218   0.95124   1.000
    O161    O    0.39565   0.00175   0.95198   1.000
    O162    O    0.88616   0.11338   0.96854   1.000
    O163    O    0.61355   0.16498   0.96368   1.000
    O164    O    0.65742   0.13292   0.98069   1.000
    O165    O    0.11436   0.16499   0.96372   1.000
    O166    O    0.15827   0.13278   0.98065   1.000
    O167    O    0.38709   0.11267   0.96956   1.000
    O168    O    0.83669   0.13969   0.97837   1.000
    O169    O    0.33743   0.13917   0.97860   1.000
    O170    O    0.27951   0.06519   0.99094   1.000
    O171    O    0.77863   0.06552   0.99100   1.000
    O172    O    0.28915   0.55329   0.49918   1.000
    O173    O    0.78803   0.55321   0.49919   1.000
    O174    O    0.28904   0.94661   0.00074   1.000
    O175    O    0.78805   0.94683   0.00080   1.000
    O176    O    0.21198   0.44682   0.50078   1.000
    O177    O    0.71086   0.44673   0.50079   1.000
    O178    O    0.21196   0.05319   0.99918   1.000
    O179    O    0.71097   0.05342   0.99923   1.000
    N180    N    0.71052   0.14104   0.70315   1.000
    O181    O    0.68603   0.22917   0.63028   1.000
    O182    O    0.73214   0.06875   0.78068   1.000
    N183    N    0.78850   0.64094   0.20311   1.000
    O184    O    0.81297   0.72905   0.13022   1.000
    O185    O    0.76686   0.56861   0.28067   1.000
    N186    N    0.78841   0.85910   0.29679   1.000
    O187    O    0.76674   0.93138   0.21927   1.000
    O188    O    0.81291   0.77099   0.36971   1.000
    N189    N    0.96767   0.78626   0.60431   1.000
    O190    O    0.92262   0.72310   0.58807   1.000
    O191    O    0.94801   0.69110   0.58724   1.000
    N192    N    0.28950   0.85901   0.29681   1.000
    O193    O    0.26788   0.93130   0.21929   1.000
    O194    O    0.31399   0.77087   0.36969   1.000
    N195    N    0.53208   0.28678   0.10463   1.000
    O196    O    0.57689   0.22341   0.08822   1.000
    O197    O    0.55146   0.19151   0.08747   1.000
    N198    N    0.21161   0.14095   0.70312   1.000
    O199    O    0.18711   0.22905   0.63023   1.000
    O200    O    0.23328   0.06866   0.78066   1.000
    N201    N    0.03234   0.28622   0.10436   1.000
    O202    O    0.05200   0.19107   0.08723   1.000
    O203    O    0.07739   0.22304   0.08808   1.000
    N204    N    0.28919   0.64087   0.20308   1.000
    O205    O    0.26768   0.56863   0.28063   1.000
    O206    O    0.31370   0.72901   0.13021   1.000
    N207    N    0.46774   0.78717   0.60443   1.000
    O208    O    0.42297   0.72365   0.58811   1.000
    O209    O    0.44843   0.69181   0.58735   1.000
    N210    N    0.00001   0.00002   0.49998   1.000
    O211    O    0.93789   0.14749   0.51073   1.000
    O212    O    0.06213   0.85255   0.48924   1.000
    N213    N    0.71083   0.35918   0.79689   1.000
    O214    O    0.73234   0.43142   0.71934   1.000
    O215    O    0.68632   0.27104   0.86976   1.000
    N216    N    0.00001   0.50002   0.99998   1.000
    O217    O    0.93791   0.35255   0.98924   1.000
    O218    O    0.06211   0.64749   0.01073   1.000
    N219    N    0.50001   0.00002   0.49998   1.000
    O220    O    0.43826   0.14768   0.51077   1.000
    O221    O    0.56176   0.85236   0.48919   1.000
    N222    N    0.03235   0.21378   0.39565   1.000
    O223    O    0.05201   0.30894   0.41273   1.000
    O224    O    0.07740   0.27694   0.41189   1.000
    N225    N    0.53227   0.21287   0.39554   1.000
    O226    O    0.57704   0.27639   0.41185   1.000
    O227    O    0.55158   0.30823   0.41262   1.000
    N228    N    0.96768   0.71382   0.89560   1.000
    O229    O    0.92263   0.77700   0.91185   1.000
    O230    O    0.94801   0.80897   0.91270   1.000
    N231    N    0.50001   0.50002   0.99993   1.000
    O232    O    0.43826   0.35227   0.98945   1.000
    O233    O    0.56176   0.64778   0.01046   1.000
    N234    N    0.21151   0.35911   0.79682   1.000
    O235    O    0.18704   0.27099   0.86971   1.000
    O236    O    0.23316   0.43143   0.71928   1.000
    N237    N    0.46794   0.71326   0.89529   1.000
    O238    O    0.42313   0.77664   0.91172   1.000
    O239    O    0.44855   0.80854   0.91248   1.000
loop_
    _geom_bond_atom_site_label_1
    _geom_bond_atom_site_label_2
    _geom_bond_distance
    _geom_bond_site_symmetry_2
    _ccdc_geom_bond_type
    Zr52   O84       0.65728      .   S
    Zr20   O84       0.65728      .   S
    Zr52   O85       1.02519  1_554   S
    Zr2    O85       1.02519      .   S
    Zr53   O86       0.65710      .   S
    Zr21   O86       0.65710      .   S
    Zr53   O87       1.02499  1_554   S
    Zr3    O87       1.02499      .   S
    Zr72   O88       0.63844      .   S
    Zr34   O88       0.63844      .   S
    Zr72   O89       1.05753      .   S
    Zr10   O89       1.05753  1_556   S
    Zr73   O90       0.63847      .   S
    Zr35   O90       0.63847      .   S
    Zr73   O91       1.05399      .   S
    Zr11   O91       1.05399  1_545   S
    Zr35   O92       0.64002      .   S
    Zr75   O92       0.64002      .   S
    Zr34   O93       0.64000      .   S
    Zr74   O93       0.64000      .   S
    Zr55   O94       0.62436      .   S
    Zr21   O94       0.62436      .   S
    Zr54   O95       0.62437      .   S
    Zr20   O95       0.62437      .   S
    Zr75   O96       1.01974      .   S
    Zr7    O96       1.01974  1_545   S
    Zr74   O97       1.01896      .   S
    Zr6    O97       1.01896  1_545   S
    Zr6    O98       1.01626      .   S
    Zr46   O98       1.01626      .   S
    Zr6    O99       1.02437      .   S
    Zr76   O99       1.02437  1_556   S
    Zr7    O100      1.01533      .   S
    Zr47   O100      1.01533      .   S
    Zr7    O101      1.02520      .   S
    Zr77   O101      1.02520  1_556   S
    Zr44   O102      0.63855      .   S
    Zr12   O102      0.63855      .   S
    Zr44   O103      1.07372      .   S
    Zr10   O103      1.07372  1_566   S
    Zr45   O104      0.63882      .   S
    Zr13   O104      0.63882      .   S
    Zr45   O105      1.07367      .   S
    Zr11   O105      1.07367      .   S
    Zr13   O106      0.63994      .   S
    Zr47   O106      0.63994      .   S
    Zr12   O107      0.63968      .   S
    Zr46   O107      0.63968      .   S
    Zr59   O108      0.63978      .   S
    Zr19   O108      0.63978      .   S
    Zr59   O109      1.01549      .   S
    Zr5    O109      1.01549      .   S
    Zr58   O110      0.63968      .   S
    Zr18   O110      0.63968      .   S
    Zr58   O111      1.01528      .   S
    Zr4    O111      1.01528      .   S
    Zr18   O112      0.63804      .   S
    Zr56   O112      0.63804      .   S
    Zr19   O113      0.63852      .   S
    Zr57   O113      0.63852      .   S
    Zr56   O114      1.07469      .   S
    Zr8    O114      1.07469      .   S
    Zr57   O115      1.07394      .   S
    Zr9    O115      1.07394      .   S
    Zr5    O116      1.01887      .   S
    Zr63   O116      1.01887      .   S
    Zr5    O117      1.02481      .   S
    Zr65   O117      1.02481      .   S
    Zr4    O118      1.01934      .   S
    Zr62   O118      1.01934      .   S
    Zr4    O119      1.02488      .   S
    Zr64   O119      1.02488      .   S
    Zr62   O120      0.63999      .   S
    Zr28   O120      0.63999      .   S
    Zr63   O121      0.64002      .   S
    Zr29   O121      0.64002      .   S
    Zr14   O122      0.62434      .   S
    Zr42   O122      0.62434      .   S
    Zr14   O123      0.65740      .   S
    Zr40   O123      0.65740      .   S
    Zr15   O124      0.62439      .   S
    Zr43   O124      0.62439      .   S
    Zr15   O125      0.65754      .   S
    Zr41   O125      0.65754      .   S
    Zr29   O126      0.63847      .   S
    Zr61   O126      0.63847      .   S
    Zr28   O127      0.63846      .   S
    Zr60   O127      0.63846      .   S
    Zr61   O128      1.05420      .   S
    Zr9    O128      1.05420      .   S
    Zr60   O129      1.05721      .   S
    Zr8    O129      1.05721      .   S
    Zr40   O130      1.02479      .   S
    Zr0    O130      1.02479      .   S
    Zr41   O131      1.02487      .   S
    Zr1    O131      1.02487      .   S
    Zr9    O132      1.05718      .   S
    Zr37   O132      1.05718      .   S
    Zr9    O133      1.07408      .   S
    Zr81   O133      1.07408      .   S
    Zr8    O134      1.05422      .   S
    Zr36   O134      1.05422      .   S
    Zr8    O135      1.07395      .   S
    Zr80   O135      1.07395      .   S
    Zr64   O136      0.65751      .   S
    Zr26   O136      0.65751      .   S
    Zr65   O137      0.65735      .   S
    Zr27   O137      0.65735      .   S
    Zr37   O138      0.63847      .   S
    Zr17   O138      0.63847      .   S
    Zr36   O139      0.63844      .   S
    Zr16   O139      0.63844      .   S
    Zr17   O140      0.63996      .   S
    Zr39   O140      0.63996      .   S
    Zr16   O141      0.64002      .   S
    Zr38   O141      0.64002      .   S
    Zr66   O142      0.62439      .   S
    Zr26   O142      0.62439      .   S
    Zr67   O143      0.62436      .   S
    Zr27   O143      0.62436      .   S
    Zr38   O144      1.01883      .   S
    Zr0    O144      1.01883      .   S
    Zr39   O145      1.01931      .   S
    Zr1    O145      1.01931      .   S
    Zr1    O146      1.01525      .   S
    Zr83   O146      1.01525      .   S
    Zr0    O147      1.01548      .   S
    Zr82   O147      1.01548      .   S
    Zr80   O148      0.63842      .   S
    Zr30   O148      0.63842      .   S
    Zr81   O149      0.63856      .   S
    Zr31   O149      0.63856      .   S
    Zr30   O150      0.63978      .   S
    Zr82   O150      0.63978      .   S
    Zr31   O151      0.63969      .   S
    Zr83   O151      0.63969      .   S
    Zr71   O152      0.63968      .   S
    Zr25   O152      0.63968      .   S
    Zr71   O153      1.01563      .   S
    Zr3    O153      1.01563      .   S
    Zr70   O154      0.63993      .   S
    Zr24   O154      0.63993      .   S
    Zr70   O155      1.01535      .   S
    Zr2    O155      1.01535      .   S
    Zr25   O156      0.63773      .   S
    Zr69   O156      0.63773      .   S
    Zr24   O157      0.63832      .   S
    Zr68   O157      0.63832      .   S
    Zr69   O158      1.07479      .   S
    Zr11   O158      1.07479  1_544   S
    Zr68   O159      1.07439      .   S
    Zr10   O159      1.07439      .   S
    Zr3    O160      1.01919  1_565   S
    Zr51   O160      1.01919      .   S
    Zr2    O161      1.01977  1_565   S
    Zr50   O161      1.01977      .   S
    Zr51   O162      0.64000      .   S
    Zr23   O162      0.64000      .   S
    Zr33   O163      0.62438      .   S
    Zr79   O163      0.62438      .   S
    Zr33   O164      0.65727      .   S
    Zr77   O164      0.65727      .   S
    Zr32   O165      0.62436      .   S
    Zr78   O165      0.62436      .   S
    Zr32   O166      0.65758      .   S
    Zr76   O166      0.65758      .   S
    Zr50   O167      0.64000      .   S
    Zr22   O167      0.64000      .   S
    Zr23   O168      0.63843      .   S
    Zr49   O168      0.63843      .   S
    Zr22   O169      0.63848      .   S
    Zr48   O169      0.63848      .   S
    Zr48   O170      1.05421      .   S
    Zr10   O170      1.05421  1_565   S
    Zr49   O171      1.05779      .   S
    Zr11   O171      1.05779  1_554   S
    Zr40   O172      1.06188      .   S
    Zr8    O172      1.06188      .   S
    Zr41   O173      1.06308      .   S
    Zr9    O173      1.06308      .   S
    Zr52   O174      1.06114      .   S
    Zr10   O174      1.06114  1_556   S
    Zr53   O175      1.06283      .   S
    Zr11   O175      1.06283  1_545   S
    Zr64   O176      1.06304      .   S
    Zr8    O176      1.06304      .   S
    Zr65   O177      1.06183      .   S
    Zr9    O177      1.06183      .   S
    Zr76   O178      1.06282      .   S
    Zr10   O178      1.06282  1_565   S
    Zr77   O179      1.06112      .   S
    Zr11   O179      1.06112  1_554   S
    N180   O181      2.27523      .   S
    Zr27   O181      2.97890      .   S
    N180   O182      2.27779      .   S
    Zr25   O182      2.99548  1_565   S
    N183   O184      2.27546      .   S
    Zr21   O184      2.97966      .   S
    N183   O185      2.27877      .   S
    Zr19   O185      2.99644      .   S
    N186   O187      2.27766      .   S
    Zr13   O187      2.99550  1_545   S
    N186   O188      2.27615      .   S
    Zr15   O188      2.97994      .   S
    N189   O190      1.31280      .   S
    Zr1    O190      2.16270      .   S
    N189   O191      1.32617      .   S
    Zr1    O191      2.14059      .   S
    N192   O193      2.27763      .   S
    Zr12   O193      2.99532  1_545   S
    N192   O194      2.27539      .   S
    Zr14   O194      2.97909      .   S
    N195   O196      1.31168      .   S
    Zr7    O196      2.16214      .   S
    N195   O197      1.32609      .   S
    Zr7    O197      2.13816      .   S
    N198   O199      2.27546      .   S
    Zr26   O199      2.97925      .   S
    N198   O200      2.27839      .   S
    Zr24   O200      2.99622  1_565   S
    N201   O202      1.32634      .   S
    Zr6    O202      2.14062      .   S
    N201   O203      1.31300      .   S
    Zr6    O203      2.16267      .   S
    N204   O205      2.27760      .   S
    Zr18   O205      2.99533      .   S
    N204   O206      2.27540      .   S
    Zr20   O206      2.97895      .   S
    N207   O208      1.31167      .   S
    Zr0    O208      2.16208      .   S
    N207   O209      1.32602      .   S
    Zr0    O209      2.13813      .   S
    N210   O211      2.28257  1_455   S
    Zr17   O211      2.99562      .   S
    N210   O212      2.28256  1_545   S
    Zr28   O212      2.99561      .   S
    N213   O214      2.27749      .   S
    Zr31   O214      2.99519      .   S
    N213   O215      2.27550      .   S
    Zr33   O215      2.97907      .   S
    N216   O217      2.28269  1_455   S
    Zr23   O217      2.99584      .   S
    N216   O218      2.28266  1_556   S
    Zr34   O218      2.99576      .   S
    N219   O220      2.27980      .   S
    Zr16   O220      2.99206      .   S
    N219   O221      2.27981  1_545   S
    Zr29   O221      2.99209      .   S
    N222   O223      1.32615      .   S
    Zr4    O223      2.14044      .   S
    N222   O224      1.31277      .   S
    Zr4    O224      2.16257      .   S
    N225   O226      1.31165      .   S
    Zr5    O226      2.16200      .   S
    N225   O227      1.32601      .   S
    Zr5    O227      2.13804      .   S
    N228   O229      1.31275      .   S
    Zr3    O229      2.16243      .   S
    N228   O230      1.32604      .   S
    Zr3    O230      2.14046      .   S
    N231   O232      2.28041      .   S
    Zr22   O232      2.99298      .   S
    N231   O233      2.28053  1_556   S
    Zr35   O233      2.99307      .   S
    N234   O235      2.27560      .   S
    Zr32   O235      2.97941      .   S
    N234   O236      2.27832      .   S
    Zr30   O236      2.99608      .   S
    N237   O238      1.31186      .   S
    Zr2    O238      2.16223      .   S
    N237   O239      1.32625      .   S
    Zr2    O239      2.13830      .   S
