# CIF file generated by openbabel 2.4.90, see http://openbabel.sf.net
data_I
_chemical_name_common ''
_cell_length_a 5.615
_cell_length_b 18.961
_cell_length_c 23.888
_cell_angle_alpha 89.932
_cell_angle_beta 89.873
_cell_angle_gamma 89.57
_space_group_name_H-M_alt 'P 1'
_space_group_name_Hall 'P 1'
loop_
    _symmetry_equiv_pos_as_xyz
    x,y,z
loop_
    _atom_site_label
    _atom_site_type_symbol
    _atom_site_fract_x
    _atom_site_fract_y
    _atom_site_fract_z
    _atom_site_occupancy
    H0      H    0.98985   0.54901   0.48349   1.000
    H1      H    0.04966   0.39164   0.35451   1.000
    H2      H    0.93418   0.60889   0.30912   1.000
    H3      H    0.00000   0.38983   0.19389   1.000
    H4      H    0.00000   0.44825   0.01926   1.000
    H5      H    0.05408   0.60601   0.14755   1.000
    H6      H    0.48855   0.44772   0.51902   1.000
    H7      H    0.54754   0.60493   0.64785   1.000
    H8      H    0.43004   0.38830   0.69345   1.000
    H9      H    0.43438   0.60790   0.80881   1.000
    H10     H    0.49365   0.54888   0.98331   1.000
    H11     H    0.54513   0.39065   0.85482   1.000
    H12     H    0.98944   0.94839   0.98329   1.000
    H13     H    0.05320   0.10615   0.85460   1.000
    H14     H    0.93113   0.88996   0.80886   1.000
    H15     H    0.00000   0.10880   0.69310   1.000
    H16     H    0.00000   0.04880   0.51884   1.000
    H17     H    0.04807   0.89137   0.64812   1.000
    H18     H    0.49195   0.04877   0.01911   1.000
    H19     H    0.54144   0.89042   0.14782   1.000
    H20     H    0.43618   0.10788   0.19362   1.000
    H21     H    0.43015   0.88827   0.30936   1.000
    H22     H    0.48906   0.94769   0.48361   1.000
    H23     H    0.55327   0.10467   0.35437   1.000
    C24     C    0.89782   0.65982   0.41511   1.000
    C25     C    0.96497   0.58707   0.39789   1.000
    C26     C    0.99784   0.53531   0.43927   1.000
    C27     C    0.02153   0.46461   0.42359   1.000
    C28     C    0.01107   0.40810   0.46704   1.000
    C29     C    0.03108   0.44670   0.36685   1.000
    C30     C    0.00974   0.49890   0.32556   1.000
    C31     C    0.96738   0.56924   0.34123   1.000
    C32     C    0.01085   0.49920   0.17697   1.000
    C33     C    0.00000   0.42905   0.16160   1.000
    C34     C    0.00000   0.41083   0.10502   1.000
    C35     C    0.00000   0.33832   0.08822   1.000
    C36     C    0.99874   0.46213   0.06342   1.000
    C37     C    0.02424   0.53276   0.07881   1.000
    C38     C    0.01550   0.58900   0.03512   1.000
    C39     C    0.03403   0.55099   0.13547   1.000
    C40     C    0.39684   0.33727   0.58745   1.000
    C41     C    0.46218   0.40986   0.60465   1.000
    C42     C    0.49584   0.46144   0.56322   1.000
    C43     C    0.51961   0.53203   0.57883   1.000
    C44     C    0.51043   0.58856   0.53535   1.000
    C45     C    0.52853   0.54995   0.63556   1.000
    C46     C    0.50607   0.49793   0.67690   1.000
    C47     C    0.46368   0.42777   0.66130   1.000
    C48     C    0.50706   0.49783   0.82553   1.000
    C49     C    0.46729   0.56836   0.84102   1.000
    C50     C    0.46717   0.58656   0.89761   1.000
    C51     C    0.40262   0.65961   0.91460   1.000
    C52     C    0.49968   0.53493   0.93913   1.000
    C53     C    0.52098   0.46409   0.92366   1.000
    C54     C    0.51074   0.40782   0.96734   1.000
    C55     C    0.52828   0.44582   0.86697   1.000
    C56     C    0.89571   0.83842   0.91450   1.000
    C57     C    0.96361   0.91097   0.89762   1.000
    C58     C    0.99788   0.00000   0.93909   1.000
    C59     C    0.02351   0.03290   0.92352   1.000
    C60     C    0.01538   0.08913   0.96713   1.000
    C61     C    0.03304   0.05113   0.86680   1.000
    C62     C    0.00956   0.00000   0.82544   1.000
    C63     C    0.96574   0.92918   0.84102   1.000
    C64     C    0.00934   0.99869   0.67686   1.000
    C65     C    0.00000   0.06909   0.66106   1.000
    C66     C    0.00000   0.08691   0.60437   1.000
    C67     C    0.00000   0.15978   0.58713   1.000
    C68     C    0.99924   0.03510   0.56308   1.000
    C69     C    0.02164   0.96435   0.57889   1.000
    C70     C    0.01093   0.90792   0.53549   1.000
    C71     C    0.03033   0.94644   0.63567   1.000
    C72     C    0.40286   0.15959   0.08779   1.000
    C73     C    0.46696   0.08648   0.10479   1.000
    C74     C    0.49810   0.03479   0.06331   1.000
    C75     C    0.51802   0.96391   0.07888   1.000
    C76     C    0.50633   0.90771   0.03530   1.000
    C77     C    0.52567   0.94562   0.13559   1.000
    C78     C    0.50656   0.99768   0.17697   1.000
    C79     C    0.46777   0.06829   0.16141   1.000
    C80     C    0.50855   0.00000   0.32560   1.000
    C81     C    0.46454   0.92769   0.34139   1.000
    C82     C    0.46254   0.90980   0.39808   1.000
    C83     C    0.39660   0.83726   0.41546   1.000
    C84     C    0.49704   0.96134   0.43937   1.000
    C85     C    0.52292   0.03189   0.42358   1.000
    C86     C    0.51511   0.08844   0.46697   1.000
    C87     C    0.53257   0.04976   0.36680   1.000
    N88     N    0.01643   0.47464   0.26958   1.000
    N89     N    0.01719   0.52363   0.23293   1.000
    N90     N    0.51298   0.52225   0.73287   1.000
    N91     N    0.51197   0.47332   0.76957   1.000
    N92     N    0.01619   0.02364   0.76940   1.000
    N93     N    0.01531   0.97453   0.73292   1.000
    N94     N    0.51187   0.97316   0.23296   1.000
    N95     N    0.51546   0.02210   0.26956   1.000
    O96     O    0.01268   0.68850   0.45702   1.000
    O97     O    0.72847   0.69145   0.39081   1.000
    O98     O    0.00000   0.42588   0.51864   1.000
    O99     O    0.01041   0.34357   0.45170   1.000
    O100    O    0.00000   0.30803   0.11280   1.000
    O101    O    0.01231   0.30865   0.04645   1.000
    O102    O    0.02041   0.65365   0.05009   1.000
    O103    O    0.99021   0.57101   0.98371   1.000
    O104    O    0.51301   0.30852   0.54539   1.000
    O105    O    0.22840   0.30584   0.61180   1.000
    O106    O    0.48973   0.57094   0.48375   1.000
    O107    O    0.51022   0.65309   0.55071   1.000
    O108    O    0.23273   0.69135   0.89050   1.000
    O109    O    0.51953   0.68856   0.95604   1.000
    O110    O    0.50985   0.34319   0.95226   1.000
    O111    O    0.49011   0.42593   0.00000   1.000
    O112    O    0.01114   0.80861   0.95616   1.000
    O113    O    0.72582   0.80813   0.89007   1.000
    O114    O    0.00000   0.07111   0.01862   1.000
    O115    O    0.02058   0.15378   0.95205   1.000
    O116    O    0.00000   0.19144   0.61125   1.000
    O117    O    0.01844   0.18860   0.54546   1.000
    O118    O    0.01009   0.84335   0.55086   1.000
    O119    O    0.98972   0.92581   0.48389   1.000
    O120    O    0.23274   0.19131   0.11193   1.000
    O121    O    0.49010   0.92584   0.98367   1.000
    O122    O    0.50058   0.84312   0.05057   1.000
    O123    O    0.22887   0.80573   0.39112   1.000
    O124    O    0.51157   0.80851   0.45763   1.000
    O125    O    0.52012   0.15297   0.45158   1.000
    O126    O    0.49012   0.07086   0.51854   1.000
loop_
    _geom_bond_atom_site_label_1
    _geom_bond_atom_site_label_2
    _geom_bond_distance
    _geom_bond_site_symmetry_2
    _ccdc_geom_bond_type
    O111   C54       0.86008  1_554   S
    O114   C60       1.27910  1_554   S
    H18    C74       1.08893      .   S
    H4     C36       1.08753  1_455   S
    C38    O102      1.27782      .   S
    C38    C37       1.49192      .   S
    C38    O103      1.28350  1_454   S
    C76    O122      1.27806      .   S
    C76    C75       1.49255      .   S
    C76    O121      1.28314  1_554   S
    O101   C35       1.14796      .   S
    C74    C75       1.39784  1_545   S
    C74    C73       1.40413      .   S
    C36    C37       1.39752  1_655   S
    C36    C34       1.38982  1_655   S
    C37    C39       1.39864      .   S
    C75    C77       1.39858      .   S
    C72    C73       1.48599      .   S
    C72    O120      1.26350      .   S
    C35    C34       1.43267      .   S
    C35    O100      0.82081      .   S
    C73    C79       1.39556      .   S
    C34    C33       1.39529      .   S
    C39    H5        1.08935      .   S
    C39    C32       1.40112      .   S
    C77    H19       1.08935      .   S
    C77    C78       1.40111      .   S
    C79    C78       1.40459  1_545   S
    C79    H20       1.08886      .   S
    C33    C32       1.38225      .   S
    C33    H3        1.07086      .   S
    C78    N94       1.41565      .   S
    C32    N89       1.41567      .   S
    N89    N88       1.27576      .   S
    N94    N95       1.27608  1_565   S
    N95    C80       1.40261      .   S
    N88    C30       1.41518      .   S
    H2     C31       1.08888      .   S
    H21    C81       1.08888      .   S
    C30    C31       1.40399  1_455   S
    C30    C29       1.40120      .   S
    C80    C81       1.44454  1_545   S
    C80    C87       1.37188      .   S
    C31    C25       1.39550      .   S
    C81    C82       1.39569      .   S
    H23    C87       1.08937      .   S
    H1     C29       1.08932      .   S
    C87    C85       1.39866      .   S
    C29    C27       1.39847      .   S
    O97    C24       1.26254      .   S
    O123   C83       1.26261      .   S
    C25    C24       1.48548      .   S
    C25    C26       1.40368      .   S
    C82    C83       1.48566      .   S
    C82    C84       1.40395      .   S
    C24    O96       1.31279  1_655   S
    C83    O124      1.31330      .   S
    C85    C84       1.39781  1_545   S
    C85    C86       1.49250      .   S
    C27    C26       1.39756  1_455   S
    C27    C28       1.49222      .   S
    C26    H0        1.08880      .   S
    C84    H22       1.08880      .   S
    O125   C86       1.27756      .   S
    O99    C28       1.27773      .   S
    C86    O126      1.28347      .   S
    C28    O98       1.27961      .   S
    O106   C44       1.28333      .   S
    O119   C70       1.28350  1_655   S
    H16    C68       1.08803  1_455   S
    H6     C42       1.08882      .   S
    C44    O107      1.27766      .   S
    C44    C43       1.49241      .   S
    C70    O118      1.27783      .   S
    C70    C69       1.49235      .   S
    O104   C40       1.31336      .   S
    O117   C67       1.13995      .   S
    C68    C69       1.39803  1_645   S
    C68    C66       1.39293  1_655   S
    C42    C43       1.39734      .   S
    C42    C41       1.40395      .   S
    C43    C45       1.39859      .   S
    C69    C71       1.39869      .   S
    C67    C66       1.44140      .   S
    C67    O116      0.83240      .   S
    C40    C41       1.48580      .   S
    C40    O105      1.26222      .   S
    C66    C65       1.39524      .   S
    C41    C47       1.39564      .   S
    C45    H7        1.08935      .   S
    C45    C46       1.40115      .   S
    C71    H17       1.08935      .   S
    C71    C64       1.40132      .   S
    C65    C64       1.38736  1_545   S
    C65    H15       1.07438      .   S
    C47    C46       1.40416      .   S
    C47    H8        1.08888      .   S
    C64    N93       1.41518      .   S
    C46    N90       1.41553      .   S
    N90    N91       1.27574      .   S
    N93    N92       1.27622  1_565   S
    N92    C62       1.41157      .   S
    N91    C48       1.41573      .   S
    H9     C49       1.08889      .   S
    H14    C63       1.08877      .   S
    C62    C63       1.41612  1_445   S
    C62    C61       1.39239      .   S
    C48    C49       1.40407      .   S
    C48    C55       1.40114      .   S
    C63    C57       1.39519      .   S
    C49    C50       1.39559      .   S
    H13    C61       1.08937      .   S
    H11    C55       1.08935      .   S
    C61    C59       1.39879      .   S
    C55    C53       1.39860      .   S
    O113   C56       1.26171      .   S
    O108   C51       1.26356      .   S
    C50    C51       1.48589      .   S
    C50    C52       1.40381      .   S
    C57    C56       1.48544      .   S
    C57    C58       1.96908  1_565   S
    C56    O112      1.31371  1_655   S
    C51    O109      1.31219      .   S
    C59    C58       0.74081  1_455   S
    C59    C60       1.49198      .   S
    C53    C52       1.39780      .   S
    C53    C54       1.49267      .   S
    C58    H12       1.43964  1_545   S
    C52    H10       1.08883      .   S
    O115   C60       1.27777      .   S
    O110   C54       1.27771      .   S
    O101   O100      1.58645      .   S
    O117   O116      1.57570      .   S
