# CIF file generated by openbabel 2.4.90, see http://openbabel.sf.net
data_I
_chemical_name_common ''
_cell_length_a 5.615
_cell_length_b 18.961
_cell_length_c 23.888
_cell_angle_alpha 89.932
_cell_angle_beta 89.873
_cell_angle_gamma 89.57
_space_group_name_H-M_alt 'P 1'
_space_group_name_Hall 'P 1'
loop_
    _symmetry_equiv_pos_as_xyz
    x,y,z
loop_
    _atom_site_label
    _atom_site_type_symbol
    _atom_site_fract_x
    _atom_site_fract_y
    _atom_site_fract_z
    _atom_site_occupancy
    Cd0     Cd   0.91848   0.80863   0.46113   1.000
    Cd1     Cd   0.00000   0.30871   0.54175   1.000
    Cd2     Cd   0.42467   0.18843   0.54130   1.000
    Cd3     Cd   0.41874   0.80873   0.96018   1.000
    Cd4     Cd   0.92494   0.68844   0.96030   1.000
    Cd5     Cd   0.00000   0.18857   0.04196   1.000
    Cd6     Cd   0.42051   0.30886   0.00000   1.000
    Cd7     Cd   0.41980   0.68843   0.46082   1.000
    O8      O    0.52035   0.18862   0.00000   1.000
loop_
    _geom_bond_atom_site_label_1
    _geom_bond_atom_site_label_2
    _geom_bond_distance
    _geom_bond_site_symmetry_2
    _ccdc_geom_bond_type
    O8     Cd6       2.34367      .   S
