# CIF file generated by openbabel 2.4.90, see http://openbabel.sf.net
data_I
_chemical_name_common ''
_cell_length_a 5.615
_cell_length_b 18.961
_cell_length_c 23.888
_cell_angle_alpha 89.932
_cell_angle_beta 89.873
_cell_angle_gamma 89.57
_space_group_name_H-M_alt 'P 1'
_space_group_name_Hall 'P 1'
loop_
    _symmetry_equiv_pos_as_xyz
    x,y,z
loop_
    _atom_site_label
    _atom_site_type_symbol
    _atom_site_fract_x
    _atom_site_fract_y
    _atom_site_fract_z
    _atom_site_occupancy
    N0      N    0.99391   0.00008   0.75110   1.000
    N1      N    0.99440   0.49890   0.25134   1.000
    N2      N    0.47534   0.99198   0.25796   1.000
    N3      N    0.47640   0.49816   0.75060   1.000
    Zr4     Zr   0.00000   0.18857   0.04196   1.000
    O5      O    0.14793   0.13977   0.10471   1.000
    O6      O    0.00014   0.28116   0.09487   1.000
    Zr7     Zr   0.92494   0.68844   0.96030   1.000
    O8      O    0.10128   0.64123   0.89915   1.000
    O9      O    0.95296   0.78137   0.90748   1.000
    O10     O    0.76213   0.64088   0.90735   1.000
    Zr11    Zr   0.41874   0.80873   0.96018   1.000
    O12     O    0.44575   0.71607   0.90727   1.000
    O13     O    0.26158   0.85655   0.90741   1.000
    O14     O    0.60092   0.85649   0.89915   1.000
    Zr15    Zr   0.41980   0.68843   0.46082   1.000
    O16     O    0.26256   0.64106   0.40798   1.000
    O17     O    0.60203   0.64143   0.39970   1.000
    O18     O    0.44516   0.77933   0.40971   1.000
    Zr19    Zr   0.42467   0.18843   0.54130   1.000
    O20     O    0.44864   0.28087   0.59414   1.000
    O21     O    0.26620   0.14136   0.59427   1.000
    Zr22    Zr   0.47043   0.24874   0.00000   1.000
    O23     O    0.28792   0.32628   0.06864   1.000
    Zr24    Zr   0.91848   0.80863   0.46113   1.000
    O25     O    0.75683   0.85446   0.40990   1.000
    O26     O    0.09650   0.85411   0.40159   1.000
    O27     O    0.94923   0.71618   0.40817   1.000
    Zr28    Zr   0.00000   0.30871   0.54175   1.000
    O29     O    0.14765   0.35571   0.60272   1.000
    O30     O    0.00078   0.21654   0.59455   1.000
    O31     O    0.95235   0.63154   0.04014   1.000
    O32     O    0.44739   0.12975   0.46344   1.000
    O33     O    0.44246   0.86401   0.04175   1.000
    O34     O    0.99976   0.13193   0.96217   1.000
    O35     O    0.46938   0.33559   0.93467   1.000
    O36     O    0.99925   0.36576   0.46208   1.000
    O37     O    0.94752   0.86599   0.54065   1.000
    O38     O    0.44397   0.63131   0.54032   1.000
loop_
    _geom_bond_atom_site_label_1
    _geom_bond_atom_site_label_2
    _geom_bond_distance
    _geom_bond_site_symmetry_2
    _ccdc_geom_bond_type
    Zr4    O5        1.94515      .   S
    N2     O5        4.95599  1_565   S
    Zr4    O6        2.16441      .   S
    N1     O6        5.57229  1_655   S
    Zr7    O8        1.97451  1_655   S
    N3     O8        4.92866      .   S
    Zr7    O9        2.17250      .   S
    N0     O9        5.58389  1_545   S
    Zr7    O10       1.80812      .   S
    N3     O10       4.90229      .   S
    Zr11   O12       2.16981      .   S
    N3     O12       5.57938      .   S
    Zr11   O13       1.78338      .   S
    N0     O13       4.85253  1_645   S
    Zr11   O14       1.99915      .   S
    N0     O14       4.98216  1_545   S
    Zr15   O16       1.78878      .   S
    N1     O16       4.86254  1_655   S
    Zr15   O17       1.98902      .   S
    N1     O17       4.96155      .   S
    Zr15   O18       2.11651      .   S
    N2     O18       5.42218      .   S
    Zr19   O20       2.16639      .   S
    N3     O20       5.56935      .   S
    Zr19   O21       1.78701      .   S
    N0     O21       4.85398  1_655   S
    Zr22   O23       2.42408      .   S
    N1     O23       5.69177  1_655   S
    Zr24   O25       1.75127      .   S
    N2     O25       4.73423      .   S
    Zr24   O26       1.94151  1_655   S
    N2     O26       4.81256      .   S
    Zr24   O27       2.16866      .   S
    N1     O27       5.57591      .   S
    Zr28   O29       1.90325      .   S
    N3     O29       4.82787      .   S
    Zr28   O30       2.15401      .   S
    N0     O30       5.54945  1_655   S
    Zr7    O31       2.19507  1_556   S
    N1     O31       5.63920      .   S
    Zr19   O32       2.17153      .   S
    N2     O32       5.56431  1_565   S
    Zr11   O33       2.21825  1_556   S
    N2     O33       5.71309      .   S
    Zr4    O34       2.18894  1_454   S
    N0     O34       5.63074      .   S
    Zr22   O35       2.26744  1_554   S
    N3     O35       5.36709      .   S
    Zr28   O36       2.18811  1_455   S
    N1     O36       5.62901      .   S
    Zr24   O37       2.19700      .   S
    N0     O37       5.64357  1_545   S
    Zr15   O38       2.18899      .   S
    N3     O38       5.62201      .   S
