# CIF file generated by openbabel 2.4.90, see http://openbabel.sf.net
data_I
_chemical_name_common ''
_cell_length_a 5.615
_cell_length_b 18.961
_cell_length_c 23.888
_cell_angle_alpha 89.932
_cell_angle_beta 89.873
_cell_angle_gamma 89.57
_space_group_name_H-M_alt 'P 1'
_space_group_name_Hall 'P 1'
loop_
    _symmetry_equiv_pos_as_xyz
    x,y,z
loop_
    _atom_site_label
    _atom_site_type_symbol
    _atom_site_fract_x
    _atom_site_fract_y
    _atom_site_fract_z
    _atom_site_occupancy
    Zr0     Zr   0.41980   0.68843   0.46082   1.000
    Zr1     Zr   0.91848   0.80863   0.46113   1.000
    Zr2     Zr   0.00000   0.30871   0.54175   1.000
    Zr3     Zr   0.42467   0.18843   0.54130   1.000
    Zr4     Zr   0.41874   0.80873   0.96018   1.000
    Zr5     Zr   0.92494   0.68844   0.96030   1.000
    Zr6     Zr   0.00000   0.18857   0.04196   1.000
    Zr7     Zr   0.42051   0.30886   0.00000   1.000
    Zr8     Zr   0.52035   0.18862   0.00000   1.000
    O9      O    0.47043   0.24874   0.00000   1.000
    N10     N    0.99391   0.00008   0.75110   1.000
    O11     O    0.00156   0.12437   0.64735   1.000
    O12     O    0.10773   0.09430   0.64724   1.000
    O13     O    0.97910   0.91304   0.62855   1.000
    O14     O    0.97401   0.93365   0.61180   1.000
    O15     O    0.10442   0.90437   0.85463   1.000
    O16     O    0.98097   0.87430   0.85466   1.000
    O17     O    0.78309   0.90426   0.83811   1.000
    O18     O    0.99695   0.06496   0.89069   1.000
    O19     O    0.00210   0.08563   0.87405   1.000
    N20     N    0.99440   0.49890   0.25134   1.000
    O21     O    0.10532   0.59368   0.35513   1.000
    O22     O    0.97999   0.62373   0.35521   1.000
    O23     O    0.78427   0.59442   0.33858   1.000
    O24     O    0.99720   0.43310   0.39077   1.000
    O25     O    0.99980   0.41252   0.37403   1.000
    O26     O    0.00028   0.37375   0.14777   1.000
    O27     O    0.10540   0.40382   0.13728   1.000
    O28     O    0.98354   0.58497   0.12827   1.000
    O29     O    0.97599   0.56431   0.11167   1.000
    N30     N    0.47534   0.99198   0.25796   1.000
    O31     O    0.46488   0.92963   0.11494   1.000
    O32     O    0.46750   0.90895   0.13167   1.000
    O33     O    0.29586   0.09096   0.16745   1.000
    O34     O    0.27451   0.89958   0.34204   1.000
    O35     O    0.59518   0.90028   0.35867   1.000
    O36     O    0.47051   0.87023   0.35859   1.000
    O37     O    0.47387   0.08134   0.37720   1.000
    O38     O    0.46637   0.06082   0.39394   1.000
    N39     N    0.47640   0.49816   0.75060   1.000
    O40     O    0.47071   0.58446   0.62819   1.000
    O41     O    0.27762   0.59403   0.83800   1.000
    O42     O    0.59932   0.59333   0.85439   1.000
    O43     O    0.47277   0.62340   0.85436   1.000
    O44     O    0.47079   0.41209   0.86337   1.000
    O45     O    0.46586   0.43278   0.87530   1.000
    O46     O    0.47262   0.37332   0.64698   1.000
    O47     O    0.29530   0.40272   0.66369   1.000
    O48     O    0.46558   0.56392   0.61145   1.000
loop_
    _geom_bond_atom_site_label_1
    _geom_bond_atom_site_label_2
    _geom_bond_distance
    _geom_bond_site_symmetry_2
    _ccdc_geom_bond_type
    Zr8    O9        1.17183      .   S
    Zr7    O9        1.17183      .   S
    N10    O11       3.41830  1_655   S
    Zr2    O11       4.30802      .   S
    N10    O12       3.12329  1_655   S
    Zr3    O12       3.57401      .   S
    N10    O13       3.36385  1_545   S
    Zr1    O13       4.47923      .   S
    N10    O14       3.56153  1_545   S
    Zr1    O14       4.32521      .   S
    N10    O15       3.12641  1_645   S
    Zr4    O15       3.56677      .   S
    N10    O16       3.43531  1_545   S
    Zr5    O16       4.34499      .   S
    N10    O17       3.00587  1_545   S
    Zr4    O17       3.99829      .   S
    N10    O18       3.55583      .   S
    Zr6    O18       4.30950  1_454   S
    N10    O19       3.35755  1_655   S
    Zr6    O19       4.46274  1_554   S
    N20    O21       3.13044  1_655   S
    Zr0    O21       3.57756      .   S
    N20    O22       3.43162      .   S
    Zr1    O22       4.33732      .   S
    N20    O23       2.99694      .   S
    Zr0    O23       3.97804      .   S
    N20    O24       3.55538      .   S
    Zr2    O24       4.30708  1_455   S
    N20    O25       3.35590      .   S
    Zr2    O25       4.46183  1_455   S
    N20    O26       3.42995  1_655   S
    Zr6    O26       4.32881      .   S
    N20    O27       3.32396  1_655   S
    Zr7    O27       4.13127      .   S
    N20    O28       3.36124      .   S
    Zr5    O28       4.47583  1_556   S
    N20    O29       3.55946      .   S
    Zr5    O29       4.32089  1_556   S
    N30    O31       3.61721      .   S
    Zr4    O31       4.36155  1_556   S
    N30    O32       3.40512      .   S
    Zr4    O32       4.52751  1_556   S
    N30    O33       3.03046  1_565   S
    Zr6    O33       3.89029      .   S
    N30    O34       2.89601      .   S
    Zr1    O34       3.88302  1_655   S
    N30    O35       3.04036      .   S
    Zr1    O35       3.50254      .   S
    N30    O36       3.33119      .   S
    Zr0    O36       4.23302      .   S
    N30    O37       3.31591  1_565   S
    Zr3    O37       4.42396      .   S
    N30    O38       3.50220  1_565   S
    Zr3    O38       4.27893      .   S
    N39    O40       3.34937      .   S
    Zr0    O40       4.46426      .   S
    N39    O41       2.97943      .   S
    Zr5    O41       3.94903  1_655   S
    N39    O42       3.14894      .   S
    Zr5    O42       3.61624      .   S
    N39    O43       3.43445      .   S
    Zr4    O43       4.33961      .   S
    N39    O44       3.14803      .   S
    Zr7    O44       3.81492  1_554   S
    N39    O45       3.22572      .   S
    Zr7    O45       3.80104  1_554   S
    N39    O46       3.42736      .   S
    Zr3    O46       4.33277      .   S
    N39    O47       2.94373      .   S
    Zr2    O47       3.80650      .   S
    N39    O48       3.54946      .   S
    Zr0    O48       4.30815      .   S
