# CIF file generated by openbabel 2.4.90, see http://openbabel.sf.net
data_I
_chemical_name_common ''
_cell_length_a 5.615
_cell_length_b 18.961
_cell_length_c 23.888
_cell_angle_alpha 89.932
_cell_angle_beta 89.873
_cell_angle_gamma 89.57
_space_group_name_H-M_alt 'P 1'
_space_group_name_Hall 'P 1'
loop_
    _symmetry_equiv_pos_as_xyz
    x,y,z
loop_
    _atom_site_label
    _atom_site_type_symbol
    _atom_site_fract_x
    _atom_site_fract_y
    _atom_site_fract_z
    _atom_site_occupancy
    N0      N    0.99391   0.00008   0.75110   1.000
    N1      N    0.99440   0.49890   0.25134   1.000
    N2      N    0.47534   0.99198   0.25796   1.000
    N3      N    0.47640   0.49816   0.75060   1.000
    Zr4     Zr   0.00000   0.18857   0.04196   1.000
    O5      O    0.14793   0.13977   0.10471   1.000
    O6      O    0.00014   0.28116   0.09487   1.000
    O7      O    0.99848   0.12676   0.96633   1.000
    O8      O    0.00105   0.13710   0.95801   1.000
    Zr9     Zr   0.92494   0.68844   0.96030   1.000
    O10     O    0.10128   0.64123   0.89915   1.000
    O11     O    0.95046   0.62637   0.03599   1.000
    O12     O    0.95296   0.78137   0.90748   1.000
    O13     O    0.76213   0.64088   0.90735   1.000
    O14     O    0.95424   0.63670   0.04429   1.000
    Zr15    Zr   0.41874   0.80873   0.96018   1.000
    O16     O    0.44575   0.71607   0.90727   1.000
    O17     O    0.44312   0.85884   0.04593   1.000
    O18     O    0.26158   0.85655   0.90741   1.000
    O19     O    0.60092   0.85649   0.89915   1.000
    O20     O    0.44181   0.86918   0.03756   1.000
    Zr21    Zr   0.41980   0.68843   0.46082   1.000
    O22     O    0.44525   0.63645   0.54451   1.000
    O23     O    0.44269   0.62618   0.53614   1.000
    O24     O    0.26256   0.64106   0.40798   1.000
    O25     O    0.60203   0.64143   0.39970   1.000
    O26     O    0.44516   0.77933   0.40971   1.000
    Zr27    Zr   0.42467   0.18843   0.54130   1.000
    O28     O    0.44864   0.28087   0.59414   1.000
    O29     O    0.44552   0.12462   0.46762   1.000
    O30     O    0.44927   0.13488   0.45925   1.000
    O31     O    0.26620   0.14136   0.59427   1.000
    Zr32    Zr   0.47043   0.24874   0.00000   1.000
    O33     O    0.46814   0.34076   0.93765   1.000
    O34     O    0.47061   0.33042   0.93168   1.000
    O35     O    0.28792   0.32628   0.06864   1.000
    Zr36    Zr   0.91848   0.80863   0.46113   1.000
    O37     O    0.75683   0.85446   0.40990   1.000
    O38     O    0.94879   0.86084   0.54484   1.000
    O39     O    0.94624   0.87114   0.53647   1.000
    O40     O    0.09650   0.85411   0.40159   1.000
    O41     O    0.94923   0.71618   0.40817   1.000
    Zr42    Zr   0.00000   0.30871   0.54175   1.000
    O43     O    0.14765   0.35571   0.60272   1.000
    O44     O    0.99860   0.37090   0.46626   1.000
    O45     O    0.00078   0.21654   0.59455   1.000
    O46     O    0.99990   0.36061   0.45789   1.000
loop_
    _geom_bond_atom_site_label_1
    _geom_bond_atom_site_label_2
    _geom_bond_distance
    _geom_bond_site_symmetry_2
    _ccdc_geom_bond_type
    Zr4    O5        1.94515      .   S
    N2     O5        4.95599  1_565   S
    Zr4    O6        2.16441      .   S
    N1     O6        5.57229  1_655   S
    Zr4    O7        2.15475  1_454   S
    N0     O7        5.67763      .   S
    Zr4    O8        2.23137  1_554   S
    N0     O8        5.58695  1_655   S
    Zr9    O10       1.97451  1_655   S
    N3     O10       4.92866      .   S
    Zr9    O11       2.16044  1_556   S
    N1     O11       5.68625      .   S
    Zr9    O12       2.17250      .   S
    N0     O12       5.58389  1_545   S
    Zr9    O13       1.80812      .   S
    N3     O13       4.90229      .   S
    Zr9    O14       2.23792  1_556   S
    N1     O14       5.59524      .   S
    Zr15   O16       2.16981      .   S
    N3     O16       5.57938      .   S
    Zr15   O17       2.26376  1_556   S
    N2     O17       5.66589      .   S
    Zr15   O18       1.78338      .   S
    N0     O18       4.85253  1_645   S
    Zr15   O19       1.99915      .   S
    N0     O19       4.98216  1_545   S
    Zr15   O20       2.18077  1_556   S
    N2     O20       5.76331      .   S
    Zr21   O22       2.23213      .   S
    N3     O22       5.57766      .   S
    Zr21   O23       2.15408      .   S
    N3     O23       5.66947      .   S
    Zr21   O24       1.78878      .   S
    N1     O24       4.86254  1_655   S
    Zr21   O25       1.98902      .   S
    N1     O25       4.96155      .   S
    Zr21   O26       2.11651      .   S
    N2     O26       5.42218      .   S
    Zr27   O28       2.16639      .   S
    N3     O28       5.56935      .   S
    Zr27   O29       2.13947      .   S
    N2     O29       5.60860  1_565   S
    Zr27   O30       2.21198      .   S
    N2     O30       5.52320  1_565   S
    Zr27   O31       1.78701      .   S
    N0     O31       4.85398  1_655   S
    Zr32   O33       2.29266  1_554   S
    N3     O33       5.37065      .   S
    Zr32   O34       2.24850  1_554   S
    N3     O34       5.36627      .   S
    Zr32   O35       2.42408      .   S
    N1     O35       5.69177  1_655   S
    Zr36   O37       1.75127      .   S
    N2     O37       4.73423      .   S
    Zr36   O38       2.23962      .   S
    N0     O38       5.59979  1_545   S
    Zr36   O39       2.16260      .   S
    N0     O39       5.69045  1_545   S
    Zr36   O40       1.94151  1_655   S
    N2     O40       4.81256      .   S
    Zr36   O41       2.16866      .   S
    N1     O41       5.57591      .   S
    Zr42   O43       1.90325      .   S
    N3     O43       4.82787      .   S
    Zr42   O44       2.15354  1_455   S
    N1     O44       5.67623      .   S
    Zr42   O45       2.15401      .   S
    N0     O45       5.54945  1_655   S
    Zr42   O46       2.23092  1_455   S
    N1     O46       5.58489      .   S
