# CIF file generated by openbabel 2.4.90, see http://openbabel.sf.net
data_I
_chemical_name_common ''
_cell_length_a 6.3285
_cell_length_b 13.6015
_cell_length_c 14.666
_cell_angle_alpha 90.018
_cell_angle_beta 90.088
_cell_angle_gamma 95.761
_space_group_name_H-M_alt 'P 1'
_space_group_name_Hall 'P 1'
loop_
    _symmetry_equiv_pos_as_xyz
    x,y,z
loop_
    _atom_site_label
    _atom_site_type_symbol
    _atom_site_fract_x
    _atom_site_fract_y
    _atom_site_fract_z
    _atom_site_occupancy
    C0      C    0.57889   0.11879   0.35465   1.000
    C1      C    0.69400   0.38429   0.11414   1.000
    C2      C    0.91335   0.38179   0.85464   1.000
    C3      C    0.79778   0.11615   0.61402   1.000
    C4      C    0.41481   0.88100   0.64382   1.000
    C5      C    0.29719   0.61628   0.88561   1.000
    C6      C    0.07862   0.61859   0.14493   1.000
    C7      C    0.19381   0.88425   0.38549   1.000
