# CIF file generated by openbabel 2.4.90, see http://openbabel.sf.net
data_I
_chemical_name_common ''
_cell_length_a 6.3285
_cell_length_b 13.6015
_cell_length_c 14.666
_cell_angle_alpha 90.018
_cell_angle_beta 90.088
_cell_angle_gamma 95.761
_space_group_name_H-M_alt 'P 1'
_space_group_name_Hall 'P 1'
loop_
    _symmetry_equiv_pos_as_xyz
    x,y,z
loop_
    _atom_site_label
    _atom_site_type_symbol
    _atom_site_fract_x
    _atom_site_fract_y
    _atom_site_fract_z
    _atom_site_occupancy
    Zr0     Zr   0.22051   0.44951   0.05484   1.000
    Zr1     Zr   0.27127   0.05138   0.55437   1.000
    Zr2     Zr   0.77081   0.55094   0.94481   1.000
    Zr3     Zr   0.72093   0.94932   0.44457   1.000
    Zr4     Zr   0.57889   0.11879   0.35465   1.000
    Zr5     Zr   0.69400   0.38429   0.11414   1.000
    Zr6     Zr   0.91335   0.38179   0.85464   1.000
    Zr7     Zr   0.79778   0.11615   0.61402   1.000
    Zr8     Zr   0.41481   0.88100   0.64382   1.000
    Zr9     Zr   0.29719   0.61628   0.88561   1.000
    Zr10    Zr   0.07862   0.61859   0.14493   1.000
    Zr11    Zr   0.19381   0.88425   0.38549   1.000
    Zr12    Zr   0.60197   0.43884   0.05801   1.000
    Zr13    Zr   0.47085   0.09883   0.42684   1.000
    Zr14    Zr   0.75063   0.08266   0.33609   1.000
    Zr15    Zr   0.89109   0.38396   0.12512   1.000
    Zr16    Zr   0.88956   0.06183   0.55774   1.000
    Zr17    Zr   0.02176   0.40211   0.92681   1.000
    Zr18    Zr   0.74085   0.41743   0.83616   1.000
    Zr19    Zr   0.60072   0.11623   0.62515   1.000
    Zr20    Zr   0.38927   0.56182   0.94179   1.000
    Zr21    Zr   0.52642   0.90106   0.57268   1.000
    Zr22    Zr   0.24156   0.91669   0.66064   1.000
    Zr23    Zr   0.10009   0.61645   0.87459   1.000
    Zr24    Zr   0.10204   0.93892   0.44149   1.000
    Zr25    Zr   0.97091   0.59858   0.07250   1.000
    Zr26    Zr   0.25045   0.58257   0.16378   1.000
    Zr27    Zr   0.39085   0.88388   0.37468   1.000
    O28     O    0.23548   0.51604   0.10931   1.000
    O29     O    0.12114   0.42581   0.99083   1.000
    O30     O    0.64799   0.41157   0.08608   1.000
    O31     O    0.02477   0.60858   0.10872   1.000
    O32     O    0.87086   0.57476   0.00865   1.000
    O33     O    0.79254   0.38412   0.11963   1.000
    O34     O    0.16453   0.60058   0.15436   1.000
    O35     O    0.66476   0.10073   0.34537   1.000
    O36     O    0.73578   0.01599   0.39033   1.000
    O37     O    0.52487   0.10881   0.39075   1.000
    O38     O    0.29233   0.88406   0.38008   1.000
    O39     O    0.14792   0.91158   0.41349   1.000
    O40     O    0.37106   0.07510   0.49060   1.000
    O41     O    0.62367   0.92519   0.50862   1.000
    O42     O    0.25641   0.98404   0.60750   1.000
    O43     O    0.84367   0.08899   0.58588   1.000
    O44     O    0.47061   0.89103   0.60825   1.000
    O45     O    0.69925   0.11619   0.61958   1.000
    O46     O    0.32818   0.89885   0.65223   1.000
    O47     O    0.82710   0.39961   0.84540   1.000
    O48     O    0.75583   0.48418   0.89048   1.000
    O49     O    0.96755   0.39195   0.89072   1.000
    O50     O    0.19864   0.61637   0.88010   1.000
    O51     O    0.34323   0.58905   0.91370   1.000
    O52     O    0.41124   0.44418   0.05643   1.000
    O53     O    0.68639   0.49489   0.00141   1.000
    O54     O    0.59589   0.02407   0.43570   1.000
    O55     O    0.05580   0.41673   0.08998   1.000
    O56     O    0.08041   0.05661   0.55605   1.000
    O57     O    0.80525   0.00557   0.50115   1.000
    O58     O    0.89628   0.47653   0.93581   1.000
    O59     O    0.43599   0.08381   0.58976   1.000
    O60     O    0.30489   0.50566   0.99832   1.000
    O61     O    0.58004   0.55638   0.94330   1.000
    O62     O    0.39884   0.97622   0.56352   1.000
    O63     O    0.93545   0.58370   0.90970   1.000
    O64     O    0.18665   0.99515   0.49793   1.000
    O65     O    0.91149   0.94412   0.44303   1.000
    O66     O    0.09571   0.52404   0.06367   1.000
    O67     O    0.55589   0.91660   0.40962   1.000
    N68     N    0.38917   0.23358   0.22541   1.000
    O69     O    0.50537   0.29104   0.18384   1.000
    O70     O    0.46260   0.19304   0.27273   1.000
    N71     N    0.88882   0.73326   0.27408   1.000
    O72     O    0.00505   0.79084   0.31571   1.000
    O73     O    0.96224   0.69278   0.22679   1.000
    N74     N    0.10299   0.26711   0.72536   1.000
    O75     O    0.02963   0.30762   0.77269   1.000
    O76     O    0.98667   0.20954   0.68376   1.000
    N77     N    0.60243   0.76673   0.77418   1.000
    O78     O    0.48604   0.70940   0.81582   1.000
    O79     O    0.52963   0.80711   0.72652   1.000
loop_
    _geom_bond_atom_site_label_1
    _geom_bond_atom_site_label_2
    _geom_bond_distance
    _geom_bond_site_symmetry_2
    _ccdc_geom_bond_type
    Zr0    O28       1.20337      .   S
    Zr26   O28       1.20337      .   S
    Zr0    O29       1.15678  1_554   S
    Zr17   O29       1.15678      .   S
    Zr12   O30       0.64286      .   S
    Zr5    O30       0.64286      .   S
    Zr25   O31       0.63787  1_655   S
    Zr10   O31       0.63787      .   S
    Zr25   O32       1.15735      .   S
    Zr2    O32       1.15735  1_556   S
    Zr5    O33       0.62891      .   S
    Zr15   O33       0.62891      .   S
    Zr10   O34       0.63346      .   S
    Zr26   O34       0.63346      .   S
    Zr14   O35       0.63340      .   S
    Zr4    O35       0.63340      .   S
    Zr14   O36       1.20311      .   S
    Zr3    O36       1.20311  1_565   S
    Zr4    O37       0.63782      .   S
    Zr13   O37       0.63782      .   S
    Zr27   O38       0.62889      .   S
    Zr11   O38       0.62889      .   S
    Zr11   O39       0.64280      .   S
    Zr24   O39       0.64280      .   S
    Zr13   O40       1.15694      .   S
    Zr1    O40       1.15694      .   S
    Zr3    O41       1.15348      .   S
    Zr21   O41       1.15348      .   S
    Zr1    O42       1.19940  1_545   S
    Zr22   O42       1.19940      .   S
    Zr16   O43       0.64262      .   S
    Zr7    O43       0.64262      .   S
    Zr21   O44       0.63751      .   S
    Zr8    O44       0.63751      .   S
    Zr7    O45       0.62904      .   S
    Zr19   O45       0.62904      .   S
    Zr8    O46       0.63367      .   S
    Zr22   O46       0.63367      .   S
    Zr18   O47       0.63351      .   S
    Zr6    O47       0.63351      .   S
    Zr18   O48       1.20423      .   S
    Zr2    O48       1.20423      .   S
    Zr6    O49       0.63781      .   S
    Zr17   O49       0.63781  1_455   S
    Zr23   O50       0.62889      .   S
    Zr9    O50       0.62889      .   S
    Zr9    O51       0.64284      .   S
    Zr20   O51       0.64284      .   S
    Zr12   O52       1.21662      .   S
    Zr0    O52       1.21662      .   S
    Zr12   O53       1.21479      .   S
    Zr2    O53       1.21479  1_556   S
    Zr13   O54       1.35579      .   S
    Zr3    O54       1.35579  1_565   S
    Zr15   O55       1.20804  1_655   S
    Zr0    O55       1.20804      .   S
    Zr16   O56       1.21731  1_655   S
    Zr1    O56       1.21731      .   S
    Zr16   O57       1.21455      .   S
    Zr3    O57       1.21455  1_565   S
    Zr17   O58       1.35422  1_455   S
    Zr2    O58       1.35422      .   S
    Zr19   O59       1.20685      .   S
    Zr1    O59       1.20685      .   S
    Zr20   O60       1.21478      .   S
    Zr0    O60       1.21478  1_554   S
    Zr20   O61       1.21710      .   S
    Zr2    O61       1.21710      .   S
    Zr21   O62       1.37125      .   S
    Zr1    O62       1.37125  1_545   S
    Zr23   O63       1.20740  1_455   S
    Zr2    O63       1.20740      .   S
    Zr24   O64       1.21360      .   S
    Zr1    O64       1.21360  1_545   S
    Zr24   O65       1.21529  1_455   S
    Zr3    O65       1.21529      .   S
    Zr25   O66       1.35253  1_655   S
    Zr0    O66       1.35253      .   S
    Zr27   O67       1.20684      .   S
    Zr3    O67       1.20684      .   S
    N68    O69       1.18732      .   S
    Zr5    O69       1.94400      .   S
    N68    O70       1.02574      .   S
    Zr4    O70       1.77550      .   S
    N71    O72       1.18729  1_655   S
    Zr11   O72       1.94399      .   S
    N71    O73       1.02587      .   S
    Zr10   O73       1.77565  1_455   S
    N74    O75       1.02615      .   S
    Zr6    O75       1.77616  1_655   S
    N74    O76       1.18733  1_455   S
    Zr7    O76       1.94408      .   S
    N77    O78       1.18747      .   S
    Zr9    O78       1.94436      .   S
    N77    O79       1.02589      .   S
    Zr8    O79       1.77594      .   S
