# CIF file generated by openbabel 2.4.90, see http://openbabel.sf.net
data_I
_chemical_name_common ''
_cell_length_a 16.645
_cell_length_b 16.816
_cell_length_c 27.26
_cell_angle_alpha 90.069
_cell_angle_beta 90.16
_cell_angle_gamma 89.401
_space_group_name_H-M_alt 'P 1'
_space_group_name_Hall 'P 1'
loop_
    _symmetry_equiv_pos_as_xyz
    x,y,z
loop_
    _atom_site_label
    _atom_site_type_symbol
    _atom_site_fract_x
    _atom_site_fract_y
    _atom_site_fract_z
    _atom_site_occupancy
    Y0      Y    0.00000   0.78276   0.57662   1.000
    Y1      Y    0.24731   0.28356   0.42321   1.000
    Y2      Y    0.74728   0.28357   0.42322   1.000
    Y3      Y    0.99477   0.21940   0.07638   1.000
    Y4      Y    0.49506   0.21973   0.07624   1.000
    Y5      Y    0.25624   0.71836   0.92399   1.000
    Y6      Y    0.75617   0.71795   0.92312   1.000
    Y7      Y    0.99641   0.22078   0.42374   1.000
    Y8      Y    0.49639   0.22076   0.42372   1.000
    Y9      Y    0.25665   0.72046   0.57694   1.000
    Y10     Y    0.75653   0.72044   0.57678   1.000
    Y11     Y    0.50666   0.78064   0.92446   1.000
    Y12     Y    0.00000   0.78026   0.92464   1.000
    Y13     Y    0.24532   0.28146   0.07664   1.000
    Y14     Y    0.74534   0.28114   0.07663   1.000
    Y15     Y    0.50759   0.78277   0.57661   1.000
    C16     C    0.11754   0.66947   0.50336   1.000
    C17     C    0.61744   0.66951   0.50326   1.000
    C18     C    0.86388   0.83189   0.50230   1.000
    C19     C    0.34286   0.10131   0.42362   1.000
    C20     C    0.84288   0.10133   0.42363   1.000
    C21     C    0.08960   0.40225   0.42403   1.000
    C22     C    0.58956   0.40224   0.42401   1.000
    C23     C    0.10679   0.71156   0.65855   1.000
    C24     C    0.60668   0.71147   0.65842   1.000
    C25     C    0.13996   0.17177   0.49775   1.000
    C26     C    0.63994   0.17177   0.49770   1.000
    C27     C    0.16105   0.90250   0.57644   1.000
    C28     C    0.66100   0.90249   0.57642   1.000
    C29     C    0.14655   0.21211   0.34167   1.000
    C30     C    0.64653   0.21211   0.34165   1.000
    C31     C    0.38312   0.33129   0.00274   1.000
    C32     C    0.88306   0.33099   0.00279   1.000
    C33     C    0.41369   0.59923   0.92501   1.000
    C34     C    0.91406   0.59887   0.92505   1.000
    C35     C    0.39612   0.29156   0.15809   1.000
    C36     C    0.89602   0.29152   0.15815   1.000
    C37     C    0.36597   0.83098   0.99857   1.000
    C38     C    0.86389   0.82986   0.99869   1.000
    C39     C    0.34206   0.10002   0.07724   1.000
    C40     C    0.84238   0.09943   0.07723   1.000
    C41     C    0.35707   0.79078   0.84250   1.000
    C42     C    0.85701   0.78808   0.84195   1.000
    C43     C    0.38592   0.33406   0.49701   1.000
    C44     C    0.88591   0.33406   0.49700   1.000
    C45     C    0.41407   0.60137   0.57606   1.000
    C46     C    0.91405   0.60140   0.57604   1.000
    C47     C    0.39618   0.29284   0.34168   1.000
    C48     C    0.89616   0.29287   0.34171   1.000
    C49     C    0.36379   0.83188   0.50232   1.000
    C50     C    0.35699   0.79101   0.65867   1.000
    C51     C    0.85710   0.79089   0.65849   1.000
    C52     C    0.12035   0.66684   0.99701   1.000
    C53     C    0.62047   0.66688   0.99671   1.000
    C54     C    0.08730   0.40072   0.07586   1.000
    C55     C    0.58752   0.40086   0.07584   1.000
    C56     C    0.10884   0.70477   0.84238   1.000
    C57     C    0.60785   0.70449   0.84211   1.000
    C58     C    0.13699   0.16888   0.00245   1.000
    C59     C    0.63706   0.16851   0.00237   1.000
    C60     C    0.15850   0.90002   0.92362   1.000
    C61     C    0.65914   0.89993   0.92252   1.000
    C62     C    0.14643   0.21209   0.15824   1.000
    C63     C    0.64650   0.21210   0.15823   1.000
    O64     O    0.04835   0.76056   0.65819   1.000
    O65     O    0.54833   0.76060   0.65811   1.000
    O66     O    0.14217   0.69066   0.61842   1.000
    O67     O    0.64209   0.69064   0.61829   1.000
    O68     O    0.08357   0.73571   0.51510   1.000
    O69     O    0.58349   0.73574   0.51508   1.000
    O70     O    0.18726   0.64970   0.51830   1.000
    O71     O    0.68721   0.64975   0.51813   1.000
    O72     O    0.03821   0.34718   0.41898   1.000
    O73     O    0.53820   0.34716   0.41897   1.000
    O74     O    0.16529   0.39143   0.42121   1.000
    O75     O    0.66526   0.39144   0.42121   1.000
    O76     O    0.20464   0.26035   0.34230   1.000
    O77     O    0.70463   0.26034   0.34228   1.000
    O78     O    0.11113   0.19089   0.38154   1.000
    O79     O    0.61113   0.19088   0.38152   1.000
    O80     O    0.17659   0.23544   0.48561   1.000
    O81     O    0.67657   0.23544   0.48561   1.000
    O82     O    0.06908   0.15633   0.48346   1.000
    O83     O    0.56906   0.15634   0.48345   1.000
    O84     O    0.21220   0.84669   0.58319   1.000
    O85     O    0.71217   0.84669   0.58316   1.000
    O86     O    0.08527   0.89267   0.57722   1.000
    O87     O    0.58522   0.89265   0.57721   1.000
    O88     O    0.45492   0.24294   0.15750   1.000
    O89     O    0.95478   0.24283   0.15762   1.000
    O90     O    0.36017   0.31279   0.11815   1.000
    O91     O    0.86014   0.31274   0.11819   1.000
    O92     O    0.41706   0.26528   0.01508   1.000
    O93     O    0.91688   0.26491   0.01516   1.000
    O94     O    0.31293   0.35071   0.01680   1.000
    O95     O    0.81291   0.35058   0.01683   1.000
    O96     O    0.46566   0.65383   0.92077   1.000
    O97     O    0.96622   0.65334   0.92094   1.000
    O98     O    0.33819   0.61089   0.92162   1.000
    O99     O    0.83863   0.61074   0.92155   1.000
    O100    O    0.29887   0.74281   0.84337   1.000
    O101    O    0.79894   0.73994   0.84209   1.000
    O102    O    0.39298   0.81242   0.88232   1.000
    O103    O    0.89206   0.80911   0.88224   1.000
    O104    O    0.32974   0.76748   0.98544   1.000
    O105    O    0.82645   0.76712   0.98564   1.000
    O106    O    0.43726   0.84653   0.98533   1.000
    O107    O    0.93552   0.84397   0.98545   1.000
    O108    O    0.29076   0.15587   0.08320   1.000
    O109    O    0.79154   0.15577   0.08326   1.000
    O110    O    0.41779   0.10995   0.07870   1.000
    O111    O    0.91822   0.10860   0.07881   1.000
    O112    O    0.45421   0.24332   0.34272   1.000
    O113    O    0.95420   0.24337   0.34275   1.000
    O114    O    0.36073   0.31569   0.38137   1.000
    O115    O    0.86070   0.31571   0.38140   1.000
    O116    O    0.41988   0.26802   0.48470   1.000
    O117    O    0.91989   0.26803   0.48400   1.000
    O118    O    0.31585   0.35363   0.48263   1.000
    O119    O    0.81584   0.35362   0.48264   1.000
    O120    O    0.46548   0.65643   0.58100   1.000
    O121    O    0.96547   0.65644   0.58108   1.000
    O122    O    0.33840   0.61224   0.57885   1.000
    O123    O    0.83837   0.61230   0.57870   1.000
    O124    O    0.29873   0.74296   0.65796   1.000
    O125    O    0.79877   0.74292   0.65772   1.000
    O126    O    0.39231   0.81239   0.61877   1.000
    O127    O    0.89240   0.81248   0.61865   1.000
    O128    O    0.32698   0.76822   0.51433   1.000
    O129    O    0.82705   0.76823   0.51429   1.000
    O130    O    0.43463   0.84714   0.51674   1.000
    O131    O    0.93472   0.84712   0.51672   1.000
    O132    O    0.29184   0.15725   0.41679   1.000
    O133    O    0.79185   0.15727   0.41600   1.000
    O134    O    0.41868   0.11093   0.42289   1.000
    O135    O    0.91869   0.11095   0.42288   1.000
    O136    O    0.05058   0.75396   0.84449   1.000
    O137    O    0.54939   0.75344   0.84412   1.000
    O138    O    0.14607   0.68077   0.88120   1.000
    O139    O    0.64535   0.68095   0.88097   1.000
    O140    O    0.08734   0.73286   0.98362   1.000
    O141    O    0.58741   0.73298   0.98348   1.000
    O142    O    0.19057   0.64649   0.98362   1.000
    O143    O    0.69050   0.64636   0.98311   1.000
    O144    O    0.03489   0.34663   0.08055   1.000
    O145    O    0.53500   0.34687   0.08060   1.000
    O146    O    0.16282   0.38865   0.07891   1.000
    O147    O    0.66301   0.38861   0.07885   1.000
    O148    O    0.20467   0.26012   0.15793   1.000
    O149    O    0.70475   0.26012   0.15795   1.000
    O150    O    0.11111   0.19115   0.11808   1.000
    O151    O    0.61128   0.19116   0.11802   1.000
    O152    O    0.17331   0.23283   0.01450   1.000
    O153    O    0.67338   0.23248   0.01453   1.000
    O154    O    0.06623   0.15314   0.01663   1.000
    O155    O    0.56627   0.15289   0.01650   1.000
    O156    O    0.20872   0.84342   0.91677   1.000
    O157    O    0.70948   0.84354   0.91531   1.000
    O158    O    0.08255   0.89130   0.92277   1.000
    O159    O    0.58321   0.89107   0.92156   1.000
loop_
    _geom_bond_atom_site_label_1
    _geom_bond_atom_site_label_2
    _geom_bond_distance
    _geom_bond_site_symmetry_2
    _ccdc_geom_bond_type
    C59    O153      1.28222      .   S
    C59    O155      1.27083      .   S
    C58    O152      1.28116      .   S
    C58    O154      1.27121      .   S
    C31    O92       1.28503      .   S
    C31    O94       1.26990      .   S
    C32    O93       1.28533      .   S
    C32    O95       1.26984      .   S
    O152   Y13       2.23180      .   S
    O153   Y14       2.23075      .   S
    O92    Y4        2.24096      .   S
    O93    Y3        2.24096      .   S
    O155   Y4        2.30203      .   S
    O154   Y3        2.29953  1_455   S
    O94    Y13       2.30770      .   S
    O95    Y14       2.30818      .   S
    C55    O147      1.27357      .   S
    C55    O145      1.27387      .   S
    C54    O146      1.27373      .   S
    C54    O144      1.27364      .   S
    Y4     O110      2.26214      .   S
    Y4     O145      2.24848      .   S
    Y4     O151      2.28906      .   S
    Y4     O88       2.34651      .   S
    Y3     O111      2.26927      .   S
    Y3     O144      2.25071  1_655   S
    Y3     O150      2.28860  1_655   S
    Y3     O89       2.34593      .   S
    Y14    O147      2.25738      .   S
    Y14    O109      2.24393      .   S
    Y14    O91       2.28577      .   S
    Y14    O149      2.34755      .   S
    Y13    O146      2.25542      .   S
    Y13    O108      2.24302      .   S
    Y13    O90       2.28464      .   S
    Y13    O148      2.34786      .   S
    C40    O111      1.27392      .   S
    C40    O109      1.27439      .   S
    C39    O110      1.27375      .   S
    C39    O108      1.27335      .   S
    O151   C63       1.29188      .   S
    O150   C62       1.29153      .   S
    O90    C35       1.28989      .   S
    O91    C36       1.28970      .   S
    O88    C35       1.26888      .   S
    O89    C36       1.26905      .   S
    O148   C62       1.26837      .   S
    O149   C63       1.26835      .   S
    C30    O77       1.26872      .   S
    C30    O79       1.29032      .   S
    C29    O76       1.26872      .   S
    C29    O78       1.29033      .   S
    C47    O112      1.26894      .   S
    C47    O114      1.29013      .   S
    C48    O113      1.26894      .   S
    C48    O115      1.29008      .   S
    O77    Y2        2.34943      .   S
    O76    Y1        2.34871      .   S
    O112   Y8        2.34526      .   S
    O113   Y7        2.34522      .   S
    O114   Y1        2.27848      .   S
    O115   Y2        2.27827      .   S
    O79    Y8        2.28332      .   S
    O78    Y7        2.28320  1_455   S
    O133   Y2        2.25086      .   S
    O133   C20       1.27759      .   S
    O132   Y1        2.24905      .   S
    O132   C19       1.27426      .   S
    O73    Y8        2.24743      .   S
    O73    C22       1.27414      .   S
    O72    Y7        2.24750  1_455   S
    O72    C21       1.27418      .   S
    O75    Y2        2.25965      .   S
    O75    C22       1.27357      .   S
    O74    Y1        2.25947      .   S
    O74    C21       1.27359      .   S
    O135   C20       1.27416      .   S
    O135   Y7        2.26596      .   S
    O134   C19       1.27416      .   S
    O134   Y8        2.26598      .   S
    Y1     O118      2.30808      .   S
    Y1     O80       2.22899      .   S
    Y2     O119      2.30796      .   S
    Y2     O81       2.22875      .   S
    Y8     O83       2.29203      .   S
    Y8     O116      2.23704      .   S
    Y7     O82       2.29209  1_655   S
    Y7     O117      2.22247      .   S
    O118   C43       1.26955      .   S
    O119   C44       1.26940      .   S
    O83    C26       1.27031      .   S
    O82    C25       1.27068      .   S
    O117   C44       1.29055      .   S
    O116   C43       1.28555      .   S
    O80    C25       1.28186      .   S
    O81    C26       1.28154      .   S
    C18    O129      1.28222      .   S
    C18    O131      1.27041      .   S
    C49    O128      1.28224      .   S
    C49    O130      1.27050      .   S
    C17    O69       1.28462      .   S
    C17    O71       1.27012      .   S
    C16    O68       1.28444      .   S
    C16    O70       1.26999      .   S
    O129   Y10       2.22704      .   S
    O128   Y9        2.22771      .   S
    O69    Y15       2.24122      .   S
    O68    Y0        2.31522      .   S
    O131   Y0        2.23345  1_655   S
    O130   Y15       2.29689      .   S
    O71    Y10       2.30529      .   S
    O70    Y9        2.30627      .   S
    C46    O123      1.27322      .   S
    C46    O121      1.27419      .   S
    C45    O122      1.27336      .   S
    C45    O120      1.27401      .   S
    C28    O87       1.27418      .   S
    C28    O85       1.27367      .   S
    C27    O86       1.27415      .   S
    C27    O84       1.27365      .   S
    Y15    O87       2.26581      .   S
    Y15    O120      2.24762      .   S
    Y15    O126      2.28948      .   S
    Y15    O65       2.35015      .   S
    Y0     O86       2.34205      .   S
    Y0     O121      2.20997  1_455   S
    Y0     O127      2.18215  1_455   S
    Y0     O64       2.39103      .   S
    Y10    O123      2.26127      .   S
    Y10    O85       2.24724      .   S
    Y10    O67       2.27890      .   S
    Y10    O125      2.34529      .   S
    Y9     O122      2.26132      .   S
    Y9     O84       2.24712      .   S
    Y9     O66       2.27902      .   S
    Y9     O124      2.34658      .   S
    O67    C24       1.29048      .   S
    O66    C23       1.29051      .   S
    O127   C51       1.29048      .   S
    O126   C50       1.29105      .   S
    O125   C51       1.26887      .   S
    O124   C50       1.26887      .   S
    O65    C24       1.26839      .   S
    O64    C23       1.26832      .   S
    C42    O101      1.26721      .   S
    C42    O103      1.29286      .   S
    O101   Y6        2.35350      .   S
    C57    O137      1.26921      .   S
    C57    O139      1.28859      .   S
    C56    O136      1.26942      .   S
    C56    O138      1.28800      .   S
    C41    O100      1.26728      .   S
    C41    O102      1.29151      .   S
    O100   Y5        2.34936      .   S
    O137   Y11       2.34759      .   S
    O136   Y12       2.38292      .   S
    O139   Y6        2.26288      .   S
    O138   Y5        2.26564      .   S
    O103   Y12       2.18425  1_655   S
    O102   Y11       2.27024      .   S
    O157   C61       1.27425      .   S
    O157   Y6        2.25279      .   S
    O156   C60       1.27411      .   S
    O156   Y5        2.24774      .   S
    O96    Y11       2.24782      .   S
    O96    C33       1.27366      .   S
    O97    Y12       2.21498  1_655   S
    O97    C34       1.27387      .   S
    O99    Y6        2.25480      .   S
    O99    C34       1.27258      .   S
    O159   C61       1.27442      .   S
    O159   Y11       2.26467      .   S
    O98    Y5        2.25390      .   S
    O98    C33       1.27301      .   S
    O158   C60       1.27436      .   S
    O158   Y12       2.33056      .   S
    Y6     O143      2.31538      .   S
    Y6     O105      2.22767      .   S
    Y5     O142      2.31082      .   S
    Y5     O104      2.23411      .   S
    Y11    O141      2.23743      .   S
    Y11    O106      2.30102      .   S
    Y12    O140      2.30206      .   S
    Y12    O107      2.24259  1_455   S
    O143   C53       1.26845      .   S
    O141   C53       1.28661      .   S
    O142   C52       1.26898      .   S
    O140   C52       1.28636      .   S
    O106   C37       1.27121      .   S
    O104   C37       1.28193      .   S
    O107   C38       1.27155      .   S
    O105   C38       1.28037      .   S
    O67    Y15       2.93623      .   S
    O78    Y1        2.98523      .   S
    O79    Y2        2.98544      .   S
    O90    Y4        2.95491      .   S
    O91    Y3        2.95301      .   S
    O103   Y6        2.96619      .   S
    O114   Y8        2.98252      .   S
    O115   Y7        2.98292      .   S
    O126   Y9        2.97373      .   S
    O127   Y10       2.97769      .   S
    O150   Y13       2.94326      .   S
    O151   Y14       2.93794      .   S
