# CIF file generated by openbabel 2.4.90, see http://openbabel.sf.net
data_I
_chemical_name_common ''
_cell_length_a 16.645
_cell_length_b 16.816
_cell_length_c 27.26
_cell_angle_alpha 90.069
_cell_angle_beta 90.16
_cell_angle_gamma 89.401
_space_group_name_H-M_alt 'P 1'
_space_group_name_Hall 'P 1'
loop_
    _symmetry_equiv_pos_as_xyz
    x,y,z
loop_
    _atom_site_label
    _atom_site_type_symbol
    _atom_site_fract_x
    _atom_site_fract_y
    _atom_site_fract_z
    _atom_site_occupancy
    Zr0     Zr   0.50759   0.78277   0.57661   1.000
    Zr1     Zr   0.00000   0.78276   0.57662   1.000
    Zr2     Zr   0.24731   0.28356   0.42321   1.000
    Zr3     Zr   0.74728   0.28357   0.42322   1.000
    Zr4     Zr   0.99477   0.21940   0.07638   1.000
    Zr5     Zr   0.49506   0.21973   0.07624   1.000
    Zr6     Zr   0.25624   0.71836   0.92399   1.000
    Zr7     Zr   0.75617   0.71795   0.92312   1.000
    Zr8     Zr   0.99641   0.22078   0.42374   1.000
    Zr9     Zr   0.49639   0.22076   0.42372   1.000
    Zr10    Zr   0.25665   0.72046   0.57694   1.000
    Zr11    Zr   0.75653   0.72044   0.57678   1.000
    Zr12    Zr   0.50666   0.78064   0.92446   1.000
    Zr13    Zr   0.00000   0.78026   0.92464   1.000
    Zr14    Zr   0.24532   0.28146   0.07664   1.000
    Zr15    Zr   0.74534   0.28114   0.07663   1.000
    Zr16    Zr   0.11754   0.66947   0.50336   1.000
    Zr17    Zr   0.61744   0.66951   0.50326   1.000
    Zr18    Zr   0.08960   0.40225   0.42403   1.000
    Zr19    Zr   0.58956   0.40224   0.42401   1.000
    Zr20    Zr   0.10679   0.71156   0.65855   1.000
    Zr21    Zr   0.60668   0.71147   0.65842   1.000
    Zr22    Zr   0.13996   0.17177   0.49775   1.000
    Zr23    Zr   0.63994   0.17177   0.49770   1.000
    Zr24    Zr   0.16105   0.90250   0.57644   1.000
    Zr25    Zr   0.66100   0.90249   0.57642   1.000
    Zr26    Zr   0.14655   0.21211   0.34167   1.000
    Zr27    Zr   0.64653   0.21211   0.34165   1.000
    Zr28    Zr   0.38312   0.33129   0.00274   1.000
    Zr29    Zr   0.88306   0.33099   0.00279   1.000
    Zr30    Zr   0.41369   0.59923   0.92501   1.000
    Zr31    Zr   0.91406   0.59887   0.92505   1.000
    Zr32    Zr   0.39612   0.29156   0.15809   1.000
    Zr33    Zr   0.89602   0.29152   0.15815   1.000
    Zr34    Zr   0.36597   0.83098   0.99857   1.000
    Zr35    Zr   0.86389   0.82986   0.99869   1.000
    Zr36    Zr   0.34206   0.10002   0.07724   1.000
    Zr37    Zr   0.84238   0.09943   0.07723   1.000
    Zr38    Zr   0.35707   0.79078   0.84250   1.000
    Zr39    Zr   0.85701   0.78808   0.84195   1.000
    Zr40    Zr   0.38592   0.33406   0.49701   1.000
    Zr41    Zr   0.88591   0.33406   0.49700   1.000
    Zr42    Zr   0.41407   0.60137   0.57606   1.000
    Zr43    Zr   0.91405   0.60140   0.57604   1.000
    Zr44    Zr   0.39618   0.29284   0.34168   1.000
    Zr45    Zr   0.89616   0.29287   0.34171   1.000
    Zr46    Zr   0.36379   0.83188   0.50232   1.000
    Zr47    Zr   0.86388   0.83189   0.50230   1.000
    Zr48    Zr   0.34286   0.10131   0.42362   1.000
    Zr49    Zr   0.84288   0.10133   0.42363   1.000
    Zr50    Zr   0.35699   0.79101   0.65867   1.000
    Zr51    Zr   0.85710   0.79089   0.65849   1.000
    Zr52    Zr   0.12035   0.66684   0.99701   1.000
    Zr53    Zr   0.62047   0.66688   0.99671   1.000
    Zr54    Zr   0.08730   0.40072   0.07586   1.000
    Zr55    Zr   0.58752   0.40086   0.07584   1.000
    Zr56    Zr   0.10884   0.70477   0.84238   1.000
    Zr57    Zr   0.60785   0.70449   0.84211   1.000
    Zr58    Zr   0.13699   0.16888   0.00245   1.000
    Zr59    Zr   0.63706   0.16851   0.00237   1.000
    Zr60    Zr   0.15850   0.90002   0.92362   1.000
    Zr61    Zr   0.65914   0.89993   0.92252   1.000
    Zr62    Zr   0.14643   0.21209   0.15824   1.000
    Zr63    Zr   0.64650   0.21210   0.15823   1.000
    Zr64    Zr   0.04835   0.76056   0.65819   1.000
    Zr65    Zr   0.54833   0.76060   0.65811   1.000
    Zr66    Zr   0.14217   0.69066   0.61842   1.000
    Zr67    Zr   0.64209   0.69064   0.61829   1.000
    Zr68    Zr   0.08357   0.73571   0.51510   1.000
    Zr69    Zr   0.58349   0.73574   0.51508   1.000
    Zr70    Zr   0.18726   0.64970   0.51830   1.000
    Zr71    Zr   0.68721   0.64975   0.51813   1.000
    Zr72    Zr   0.03821   0.34718   0.41898   1.000
    Zr73    Zr   0.53820   0.34716   0.41897   1.000
    Zr74    Zr   0.16529   0.39143   0.42121   1.000
    Zr75    Zr   0.66526   0.39144   0.42121   1.000
    Zr76    Zr   0.20464   0.26035   0.34230   1.000
    Zr77    Zr   0.70463   0.26034   0.34228   1.000
    Zr78    Zr   0.11113   0.19089   0.38154   1.000
    Zr79    Zr   0.61113   0.19088   0.38152   1.000
    Zr80    Zr   0.17659   0.23544   0.48561   1.000
    Zr81    Zr   0.67657   0.23544   0.48561   1.000
    Zr82    Zr   0.06908   0.15633   0.48346   1.000
    Zr83    Zr   0.56906   0.15634   0.48345   1.000
    Zr84    Zr   0.21220   0.84669   0.58319   1.000
    Zr85    Zr   0.71217   0.84669   0.58316   1.000
    Zr86    Zr   0.08527   0.89267   0.57722   1.000
    Zr87    Zr   0.58522   0.89265   0.57721   1.000
    Zr88    Zr   0.45492   0.24294   0.15750   1.000
    Zr89    Zr   0.95478   0.24283   0.15762   1.000
    Zr90    Zr   0.36017   0.31279   0.11815   1.000
    Zr91    Zr   0.86014   0.31274   0.11819   1.000
    Zr92    Zr   0.41706   0.26528   0.01508   1.000
    Zr93    Zr   0.91688   0.26491   0.01516   1.000
    Zr94    Zr   0.31293   0.35071   0.01680   1.000
    Zr95    Zr   0.81291   0.35058   0.01683   1.000
    Zr96    Zr   0.46566   0.65383   0.92077   1.000
    Zr97    Zr   0.96622   0.65334   0.92094   1.000
    Zr98    Zr   0.33819   0.61089   0.92162   1.000
    Zr99    Zr   0.83863   0.61074   0.92155   1.000
    Zr100   Zr   0.29887   0.74281   0.84337   1.000
    Zr101   Zr   0.79894   0.73994   0.84209   1.000
    Zr102   Zr   0.39298   0.81242   0.88232   1.000
    Zr103   Zr   0.89206   0.80911   0.88224   1.000
    Zr104   Zr   0.32974   0.76748   0.98544   1.000
    Zr105   Zr   0.82645   0.76712   0.98564   1.000
    Zr106   Zr   0.43726   0.84653   0.98533   1.000
    Zr107   Zr   0.93552   0.84397   0.98545   1.000
    Zr108   Zr   0.29076   0.15587   0.08320   1.000
    Zr109   Zr   0.79154   0.15577   0.08326   1.000
    Zr110   Zr   0.41779   0.10995   0.07870   1.000
    Zr111   Zr   0.91822   0.10860   0.07881   1.000
    Zr112   Zr   0.45421   0.24332   0.34272   1.000
    Zr113   Zr   0.95420   0.24337   0.34275   1.000
    Zr114   Zr   0.36073   0.31569   0.38137   1.000
    Zr115   Zr   0.86070   0.31571   0.38140   1.000
    Zr116   Zr   0.41988   0.26802   0.48470   1.000
    Zr117   Zr   0.91989   0.26803   0.48400   1.000
    Zr118   Zr   0.31585   0.35363   0.48263   1.000
    Zr119   Zr   0.81584   0.35362   0.48264   1.000
    Zr120   Zr   0.46548   0.65643   0.58100   1.000
    Zr121   Zr   0.96547   0.65644   0.58108   1.000
    Zr122   Zr   0.33840   0.61224   0.57885   1.000
    Zr123   Zr   0.83837   0.61230   0.57870   1.000
    Zr124   Zr   0.29873   0.74296   0.65796   1.000
    Zr125   Zr   0.79877   0.74292   0.65772   1.000
    Zr126   Zr   0.39231   0.81239   0.61877   1.000
    Zr127   Zr   0.89240   0.81248   0.61865   1.000
    Zr128   Zr   0.32698   0.76822   0.51433   1.000
    Zr129   Zr   0.82705   0.76823   0.51429   1.000
    Zr130   Zr   0.43463   0.84714   0.51674   1.000
    Zr131   Zr   0.93472   0.84712   0.51672   1.000
    Zr132   Zr   0.29184   0.15725   0.41679   1.000
    Zr133   Zr   0.79185   0.15727   0.41600   1.000
    Zr134   Zr   0.41868   0.11093   0.42289   1.000
    Zr135   Zr   0.91869   0.11095   0.42288   1.000
    Zr136   Zr   0.05058   0.75396   0.84449   1.000
    Zr137   Zr   0.54939   0.75344   0.84412   1.000
    Zr138   Zr   0.14607   0.68077   0.88120   1.000
    Zr139   Zr   0.64535   0.68095   0.88097   1.000
    Zr140   Zr   0.08734   0.73286   0.98362   1.000
    Zr141   Zr   0.58741   0.73298   0.98348   1.000
    Zr142   Zr   0.19057   0.64649   0.98362   1.000
    Zr143   Zr   0.69050   0.64636   0.98311   1.000
    Zr144   Zr   0.03489   0.34663   0.08055   1.000
    Zr145   Zr   0.53500   0.34687   0.08060   1.000
    Zr146   Zr   0.16282   0.38865   0.07891   1.000
    Zr147   Zr   0.66301   0.38861   0.07885   1.000
    Zr148   Zr   0.20467   0.26012   0.15793   1.000
    Zr149   Zr   0.70475   0.26012   0.15795   1.000
    Zr150   Zr   0.11111   0.19115   0.11808   1.000
    Zr151   Zr   0.61128   0.19116   0.11802   1.000
    Zr152   Zr   0.17331   0.23283   0.01450   1.000
    Zr153   Zr   0.67338   0.23248   0.01453   1.000
    Zr154   Zr   0.06623   0.15314   0.01663   1.000
    Zr155   Zr   0.56627   0.15289   0.01650   1.000
    Zr156   Zr   0.20872   0.84342   0.91677   1.000
    Zr157   Zr   0.70948   0.84354   0.91531   1.000
    Zr158   Zr   0.08255   0.89130   0.92277   1.000
    Zr159   Zr   0.58321   0.89107   0.92156   1.000
    O160    O    0.65522   0.20049   0.00845   1.000
    O161    O    0.60167   0.16070   0.00944   1.000
    O162    O    0.15515   0.20086   0.00848   1.000
    O163    O    0.10161   0.16101   0.00954   1.000
    O164    O    0.40009   0.29829   0.00891   1.000
    O165    O    0.34802   0.34100   0.00977   1.000
    O166    O    0.89997   0.29795   0.00898   1.000
    O167    O    0.84798   0.34078   0.00981   1.000
    O168    O    0.20932   0.25715   0.04557   1.000
    O169    O    0.70936   0.25681   0.04558   1.000
    O170    O    0.45606   0.24251   0.04566   1.000
    O171    O    0.95582   0.24215   0.04577   1.000
    O172    O    0.53067   0.18631   0.04637   1.000
    O173    O    0.03050   0.18627   0.04651   1.000
    O174    O    0.27913   0.31609   0.04672   1.000
    O175    O    0.77913   0.31586   0.04673   1.000
    O176    O    0.62527   0.39473   0.07735   1.000
    O177    O    0.56126   0.37386   0.07822   1.000
    O178    O    0.12506   0.39468   0.07739   1.000
    O179    O    0.06109   0.37368   0.07821   1.000
    O180    O    0.45642   0.16484   0.07747   1.000
    O181    O    0.51503   0.28330   0.07842   1.000
    O182    O    0.55317   0.20545   0.09713   1.000
    O183    O    0.47499   0.23134   0.11687   1.000
    O184    O    0.95649   0.16400   0.07760   1.000
    O185    O    0.01483   0.28301   0.07847   1.000
    O186    O    0.05294   0.20527   0.09723   1.000
    O187    O    0.97477   0.23111   0.11700   1.000
    O188    O    0.70418   0.33487   0.07774   1.000
    O189    O    0.76844   0.21845   0.07995   1.000
    O190    O    0.80274   0.29694   0.09741   1.000
    O191    O    0.72505   0.27063   0.11729   1.000
    O192    O    0.20407   0.33506   0.07778   1.000
    O193    O    0.26804   0.21867   0.07992   1.000
    O194    O    0.30275   0.29713   0.09740   1.000
    O195    O    0.22500   0.27079   0.11729   1.000
    O196    O    0.88030   0.10402   0.07802   1.000
    O197    O    0.81696   0.12760   0.08025   1.000
    O198    O    0.37993   0.10498   0.07797   1.000
    O199    O    0.31641   0.12794   0.08022   1.000
    O200    O    0.62889   0.20163   0.13813   1.000
    O201    O    0.12877   0.20162   0.13816   1.000
    O202    O    0.37814   0.30217   0.13812   1.000
    O203    O    0.87808   0.30213   0.13817   1.000
    O204    O    0.42552   0.26725   0.15779   1.000
    O205    O    0.92540   0.26718   0.15789   1.000
    O206    O    0.17555   0.23611   0.15808   1.000
    O207    O    0.67562   0.23611   0.15809   1.000
    O208    O    0.67558   0.23623   0.34197   1.000
    O209    O    0.62883   0.20150   0.36158   1.000
    O210    O    0.17559   0.23623   0.34199   1.000
    O211    O    0.12884   0.20150   0.36161   1.000
    O212    O    0.42520   0.26808   0.34220   1.000
    O213    O    0.37845   0.30426   0.36152   1.000
    O214    O    0.92518   0.26812   0.34223   1.000
    O215    O    0.87843   0.30429   0.36156   1.000
    O216    O    0.72596   0.27195   0.38275   1.000
    O217    O    0.22597   0.27195   0.38276   1.000
    O218    O    0.47530   0.23204   0.38322   1.000
    O219    O    0.97530   0.23207   0.38325   1.000
    O220    O    0.30402   0.29962   0.40229   1.000
    O221    O    0.80399   0.29964   0.40231   1.000
    O222    O    0.55376   0.20582   0.40262   1.000
    O223    O    0.05377   0.20584   0.40264   1.000
    O224    O    0.76957   0.22042   0.41961   1.000
    O225    O    0.81737   0.12930   0.41982   1.000
    O226    O    0.26958   0.22040   0.42000   1.000
    O227    O    0.31735   0.12928   0.42021   1.000
    O228    O    0.51730   0.28396   0.42135   1.000
    O229    O    0.56388   0.37470   0.42149   1.000
    O230    O    0.01731   0.28398   0.42136   1.000
    O231    O    0.06391   0.37471   0.42151   1.000
    O232    O    0.70627   0.33750   0.42222   1.000
    O233    O    0.62741   0.39684   0.42261   1.000
    O234    O    0.20630   0.33749   0.42221   1.000
    O235    O    0.12745   0.39684   0.42262   1.000
    O236    O    0.88079   0.10614   0.42326   1.000
    O237    O    0.95755   0.16586   0.42331   1.000
    O238    O    0.38077   0.10612   0.42326   1.000
    O239    O    0.45753   0.16584   0.42331   1.000
    O240    O    0.28158   0.31859   0.45292   1.000
    O241    O    0.21195   0.25950   0.45441   1.000
    O242    O    0.78156   0.31859   0.45293   1.000
    O243    O    0.71193   0.25950   0.45442   1.000
    O244    O    0.53273   0.18855   0.45359   1.000
    O245    O    0.45814   0.24439   0.45421   1.000
    O246    O    0.03274   0.18855   0.45360   1.000
    O247    O    0.95815   0.24440   0.45387   1.000
    O248    O    0.35089   0.34385   0.48982   1.000
    O249    O    0.85087   0.34384   0.48982   1.000
    O250    O    0.60450   0.16405   0.49057   1.000
    O251    O    0.10452   0.16405   0.49061   1.000
    O252    O    0.90290   0.30105   0.49050   1.000
    O253    O    0.40290   0.30104   0.49086   1.000
    O254    O    0.15827   0.20360   0.49168   1.000
    O255    O    0.65825   0.20360   0.49166   1.000
    O256    O    0.84546   0.80006   0.50830   1.000
    O257    O    0.89930   0.83951   0.50951   1.000
    O258    O    0.34538   0.80005   0.50833   1.000
    O259    O    0.39921   0.83951   0.50953   1.000
    O260    O    0.60046   0.70262   0.50917   1.000
    O261    O    0.65232   0.65963   0.51070   1.000
    O262    O    0.10055   0.70259   0.50923   1.000
    O263    O    0.15240   0.65959   0.51083   1.000
    O264    O    0.79179   0.74434   0.54553   1.000
    O265    O    0.29182   0.74434   0.54563   1.000
    O266    O    0.54554   0.75925   0.54585   1.000
    O267    O    0.04179   0.75924   0.54586   1.000
    O268    O    0.96736   0.81494   0.54667   1.000
    O269    O    0.47111   0.81496   0.54668   1.000
    O270    O    0.72187   0.68509   0.54746   1.000
    O271    O    0.22196   0.68508   0.54762   1.000
    O272    O    0.87621   0.60685   0.57737   1.000
    O273    O    0.93976   0.62892   0.57856   1.000
    O274    O    0.37624   0.60681   0.57746   1.000
    O275    O    0.43978   0.62890   0.57853   1.000
    O276    O    0.62311   0.89757   0.57682   1.000
    O277    O    0.68659   0.87459   0.57979   1.000
    O278    O    0.12316   0.89758   0.57683   1.000
    O279    O    0.18663   0.87459   0.57981   1.000
    O280    O    0.54640   0.83771   0.57691   1.000
    O281    O    0.48653   0.71960   0.57881   1.000
    O282    O    0.44995   0.79758   0.59769   1.000
    O283    O    0.52796   0.77169   0.61736   1.000
    O284    O    0.04264   0.83771   0.57692   1.000
    O285    O    0.98273   0.71960   0.57885   1.000
    O286    O    0.94620   0.79762   0.59764   1.000
    O287    O    0.02417   0.77166   0.61741   1.000
    O288    O    0.79745   0.66637   0.57774   1.000
    O289    O    0.73435   0.78356   0.57997   1.000
    O290    O    0.69931   0.70554   0.59754   1.000
    O291    O    0.77765   0.73168   0.61725   1.000
    O292    O    0.29753   0.66635   0.57790   1.000
    O293    O    0.23443   0.78357   0.58007   1.000
    O294    O    0.19941   0.70556   0.59768   1.000
    O295    O    0.27769   0.73171   0.61745   1.000
    O296    O    0.62439   0.70106   0.63836   1.000
    O297    O    0.12448   0.70111   0.63848   1.000
    O298    O    0.87475   0.80168   0.63857   1.000
    O299    O    0.37465   0.80170   0.63872   1.000
    O300    O    0.82794   0.76690   0.65811   1.000
    O301    O    0.32786   0.76698   0.65831   1.000
    O302    O    0.57750   0.73603   0.65827   1.000
    O303    O    0.07757   0.73606   0.65837   1.000
    O304    O    0.82798   0.76401   0.84202   1.000
    O305    O    0.87453   0.79859   0.86210   1.000
    O306    O    0.77756   0.72895   0.88260   1.000
    O307    O    0.57862   0.72896   0.84312   1.000
    O308    O    0.62660   0.69272   0.86154   1.000
    O309    O    0.07971   0.72937   0.84344   1.000
    O310    O    0.12746   0.69277   0.86179   1.000
    O311    O    0.32797   0.76680   0.84294   1.000
    O312    O    0.37502   0.80160   0.86241   1.000
    O313    O    0.27756   0.73059   0.88368   1.000
    O314    O    0.52803   0.76704   0.88429   1.000
    O315    O    0.02529   0.76711   0.88457   1.000
    O316    O    0.70076   0.69945   0.90205   1.000
    O317    O    0.20116   0.69957   0.90260   1.000
    O318    O    0.94603   0.79469   0.90344   1.000
    O319    O    0.44982   0.79653   0.90339   1.000
    O320    O    0.68431   0.87173   0.91892   1.000
    O321    O    0.73283   0.78075   0.91922   1.000
    O322    O    0.18361   0.87172   0.92020   1.000
    O323    O    0.23248   0.78089   0.92038   1.000
    O324    O    0.48616   0.71723   0.92262   1.000
    O325    O    0.43968   0.62653   0.92289   1.000
    O326    O    0.98311   0.71680   0.92279   1.000
    O327    O    0.94014   0.62610   0.92300   1.000
    O328    O    0.79740   0.66435   0.92234   1.000
    O329    O    0.87634   0.60481   0.92330   1.000
    O330    O    0.62118   0.89550   0.92204   1.000
    O331    O    0.54493   0.83586   0.92301   1.000
    O332    O    0.29721   0.66462   0.92281   1.000
    O333    O    0.37594   0.60506   0.92331   1.000
    O334    O    0.12053   0.89566   0.92320   1.000
    O335    O    0.04128   0.83578   0.92370   1.000
    O336    O    0.72333   0.68216   0.95312   1.000
    O337    O    0.79131   0.74254   0.95438   1.000
    O338    O    0.22340   0.68243   0.95381   1.000
    O339    O    0.29299   0.74292   0.95472   1.000
    O340    O    0.54703   0.75681   0.95397   1.000
    O341    O    0.47196   0.81359   0.95490   1.000
    O342    O    0.04367   0.75656   0.95413   1.000
    O343    O    0.96776   0.81212   0.95505   1.000
    O344    O    0.65548   0.65662   0.98991   1.000
    O345    O    0.60394   0.69993   0.99010   1.000
    O346    O    0.15546   0.65667   0.99032   1.000
    O347    O    0.10384   0.69985   0.99032   1.000
    O348    O    0.40161   0.83875   0.99195   1.000
    O349    O    0.34785   0.79923   0.99201   1.000
    O350    O    0.89971   0.83692   0.99207   1.000
    O351    O    0.84517   0.79849   0.99216   1.000
    O352    O    0.57484   0.73671   0.59745   1.000
    O353    O    0.17922   0.23723   0.40237   1.000
    O354    O    0.67921   0.23722   0.40237   1.000
    O355    O    0.42761   0.26626   0.09720   1.000
    O356    O    0.92746   0.26607   0.09729   1.000
    O357    O    0.82411   0.76353   0.90268   1.000
    O358    O    0.42856   0.26822   0.40255   1.000
    O359    O    0.92855   0.26825   0.40257   1.000
    O360    O    0.32448   0.76642   0.59786   1.000
    O361    O    0.82446   0.76646   0.59772   1.000
    O362    O    0.17822   0.23630   0.09736   1.000
    O363    O    0.67831   0.23615   0.09732   1.000
    N364    N    0.27612   0.94755   0.44504   1.000
    O365    O    0.30925   0.90454   0.46581   1.000
    O366    O    0.30149   0.00423   0.43691   1.000
    N367    N    0.09257   0.14630   0.24980   1.000
    O368    O    0.11284   0.17074   0.21590   1.000
    O369    O    0.11290   0.17075   0.28381   1.000
    N370    N    0.72767   0.05607   0.55502   1.000
    O371    O    0.69452   0.09913   0.53425   1.000
    O372    O    0.70231   0.99949   0.56316   1.000
    N373    N    0.97594   0.44211   0.94676   1.000
    O374    O    0.95247   0.49995   0.93853   1.000
    O375    O    0.94089   0.40072   0.96701   1.000
    N376    N    0.59255   0.14632   0.24977   1.000
    O377    O    0.61285   0.17075   0.21588   1.000
    O378    O    0.61288   0.17077   0.28378   1.000
    N379    N    0.47584   0.44257   0.94669   1.000
    O380    O    0.45228   0.50038   0.93848   1.000
    O381    O    0.44085   0.40112   0.96696   1.000
    N382    N    0.34135   0.35792   0.24967   1.000
    O383    O    0.36202   0.33327   0.21578   1.000
    O384    O    0.36207   0.33374   0.28371   1.000
    N385    N    0.22771   0.05608   0.55502   1.000
    O386    O    0.20236   0.99949   0.56317   1.000
    O387    O    0.19456   0.09913   0.53426   1.000
    N388    N    0.66173   0.64246   0.74919   1.000
    O389    O    0.64126   0.66549   0.78355   1.000
    O390    O    0.64093   0.66811   0.71561   1.000
    N391    N    0.84125   0.35792   0.24966   1.000
    O392    O    0.86193   0.33327   0.21580   1.000
    O393    O    0.86200   0.33376   0.28372   1.000
    N394    N    0.02591   0.55808   0.44629   1.000
    O395    O    0.05003   0.50057   0.43786   1.000
    O396    O    0.06049   0.59957   0.46695   1.000
    N397    N    0.91164   0.85470   0.75077   1.000
    O398    O    0.89110   0.83101   0.71661   1.000
    O399    O    0.89111   0.82992   0.78452   1.000
    N400    N    0.97777   0.44551   0.55384   1.000
    O401    O    0.94313   0.40399   0.53327   1.000
    O402    O    0.95364   0.50304   0.56225   1.000
    N403    N    0.47779   0.44549   0.55384   1.000
    O404    O    0.44315   0.40398   0.53327   1.000
    O405    O    0.45366   0.50301   0.56226   1.000
    N406    N    0.77567   0.94598   0.05527   1.000
    O407    O    0.80902   0.90278   0.03476   1.000
    O408    O    0.80100   0.00252   0.06363   1.000
    N409    N    0.52665   0.55779   0.05358   1.000
    O410    O    0.54973   0.49987   0.06202   1.000
    O411    O    0.56201   0.59847   0.03301   1.000
    N412    N    0.02638   0.55765   0.05366   1.000
    O413    O    0.04947   0.49973   0.06208   1.000
    O414    O    0.06178   0.59837   0.03317   1.000
    N415    N    0.41144   0.85577   0.75074   1.000
    O416    O    0.39090   0.83171   0.71667   1.000
    O417    O    0.39092   0.83159   0.78467   1.000
    N418    N    0.77618   0.94756   0.44505   1.000
    O419    O    0.80933   0.90455   0.46581   1.000
    O420    O    0.80153   0.00425   0.43692   1.000
    N421    N    0.22555   0.05328   0.94560   1.000
    O422    O    0.19210   0.09631   0.96620   1.000
    O423    O    0.20016   0.99677   0.93725   1.000
    N424    N    0.52580   0.55806   0.44614   1.000
    O425    O    0.54994   0.50056   0.43757   1.000
    O426    O    0.56038   0.59958   0.46683   1.000
    N427    N    0.16242   0.64292   0.74931   1.000
    O428    O    0.14139   0.66843   0.71574   1.000
    O429    O    0.14208   0.66591   0.78370   1.000
    N430    N    0.27651   0.94604   0.05468   1.000
    O431    O    0.31028   0.90320   0.03443   1.000
    O432    O    0.30142   0.00278   0.06333   1.000
    N433    N    0.72586   0.05311   0.94538   1.000
    O434    O    0.70058   0.99663   0.93672   1.000
    O435    O    0.69232   0.09604   0.96605   1.000
loop_
    _geom_bond_atom_site_label_1
    _geom_bond_atom_site_label_2
    _geom_bond_distance
    _geom_bond_site_symmetry_2
    _ccdc_geom_bond_type
    Zr59   O160      0.64111      .   S
    Zr153  O160      0.64111      .   S
    Zr59   O161      0.63541      .   S
    Zr155  O161      0.63541      .   S
    Zr58   O162      0.64058      .   S
    Zr152  O162      0.64058      .   S
    Zr58   O163      0.63561      .   S
    Zr154  O163      0.63561      .   S
    Zr28   O164      0.64252      .   S
    Zr92   O164      0.64252      .   S
    Zr28   O165      0.63495      .   S
    Zr94   O165      0.63495      .   S
    Zr29   O166      0.64267      .   S
    Zr93   O166      0.64267      .   S
    Zr29   O167      0.63492      .   S
    Zr95   O167      0.63492      .   S
    Zr152  O168      1.11590      .   S
    Zr14   O168      1.11590      .   S
    Zr153  O169      1.11538      .   S
    Zr15   O169      1.11538      .   S
    Zr92   O170      1.12048      .   S
    Zr5    O170      1.12048      .   S
    Zr93   O171      1.12048      .   S
    Zr4    O171      1.12048      .   S
    Zr155  O172      1.15102      .   S
    Zr5    O172      1.15102      .   S
    Zr154  O173      1.14976      .   S
    Zr4    O173      1.14976  1_655   S
    Zr94   O174      1.15385      .   S
    Zr14   O174      1.15385      .   S
    Zr95   O175      1.15409      .   S
    Zr15   O175      1.15409      .   S
    Zr55   O176      0.63678      .   S
    Zr147  O176      0.63678      .   S
    Zr55   O177      0.63693      .   S
    Zr145  O177      0.63693      .   S
    Zr54   O178      0.63687      .   S
    Zr146  O178      0.63687      .   S
    Zr54   O179      0.63682      .   S
    Zr144  O179      0.63682      .   S
    Zr5    O180      1.13107      .   S
    Zr110  O180      1.13107      .   S
    Zr5    O181      1.12424      .   S
    Zr145  O181      1.12424      .   S
    Zr5    O182      1.14453      .   S
    Zr151  O182      1.14453      .   S
    Zr5    O183      1.17326      .   S
    Zr88   O183      1.17326      .   S
    Zr4    O184      1.13463      .   S
    Zr111  O184      1.13463      .   S
    Zr4    O185      1.12535  1_655   S
    Zr144  O185      1.12535      .   S
    Zr4    O186      1.14430  1_655   S
    Zr150  O186      1.14430      .   S
    Zr4    O187      1.17297      .   S
    Zr89   O187      1.17297      .   S
    Zr15   O188      1.12869      .   S
    Zr147  O188      1.12869      .   S
    Zr15   O189      1.12196      .   S
    Zr109  O189      1.12196      .   S
    Zr15   O190      1.14288      .   S
    Zr91   O190      1.14288      .   S
    Zr15   O191      1.17377      .   S
    Zr149  O191      1.17377      .   S
    Zr14   O192      1.12771      .   S
    Zr146  O192      1.12771      .   S
    Zr14   O193      1.12151      .   S
    Zr108  O193      1.12151      .   S
    Zr14   O194      1.14232      .   S
    Zr90   O194      1.14232      .   S
    Zr14   O195      1.17393      .   S
    Zr148  O195      1.17393      .   S
    Zr37   O196      0.63696      .   S
    Zr111  O196      0.63696      .   S
    Zr37   O197      0.63720      .   S
    Zr109  O197      0.63720      .   S
    Zr36   O198      0.63687      .   S
    Zr110  O198      0.63687      .   S
    Zr36   O199      0.63667      .   S
    Zr108  O199      0.63667      .   S
    Zr151  O200      0.64594      .   S
    Zr63   O200      0.64594      .   S
    Zr150  O201      0.64577      .   S
    Zr62   O201      0.64577      .   S
    Zr90   O202      0.64495      .   S
    Zr32   O202      0.64495      .   S
    Zr91   O203      0.64485      .   S
    Zr33   O203      0.64485      .   S
    Zr88   O204      0.63444      .   S
    Zr32   O204      0.63444      .   S
    Zr89   O205      0.63453      .   S
    Zr33   O205      0.63453      .   S
    Zr148  O206      0.63418      .   S
    Zr62   O206      0.63418      .   S
    Zr149  O207      0.63418      .   S
    Zr63   O207      0.63418      .   S
    Zr27   O208      0.63436      .   S
    Zr77   O208      0.63436      .   S
    Zr27   O209      0.64516      .   S
    Zr79   O209      0.64516      .   S
    Zr26   O210      0.63436      .   S
    Zr76   O210      0.63436      .   S
    Zr26   O211      0.64517      .   S
    Zr78   O211      0.64517      .   S
    Zr44   O212      0.63447      .   S
    Zr112  O212      0.63447      .   S
    Zr44   O213      0.64507      .   S
    Zr114  O213      0.64507      .   S
    Zr45   O214      0.63447      .   S
    Zr113  O214      0.63447      .   S
    Zr45   O215      0.64504      .   S
    Zr115  O215      0.64504      .   S
    Zr77   O216      1.17471      .   S
    Zr3    O216      1.17471      .   S
    Zr76   O217      1.17435      .   S
    Zr2    O217      1.17435      .   S
    Zr112  O218      1.17263      .   S
    Zr9    O218      1.17263      .   S
    Zr113  O219      1.17261      .   S
    Zr8    O219      1.17261      .   S
    Zr114  O220      1.13924      .   S
    Zr2    O220      1.13924      .   S
    Zr115  O221      1.13914      .   S
    Zr3    O221      1.13914      .   S
    Zr79   O222      1.14166      .   S
    Zr9    O222      1.14166      .   S
    Zr78   O223      1.14160      .   S
    Zr8    O223      1.14160  1_655   S
    Zr133  O224      1.12543      .   S
    Zr3    O224      1.12543      .   S
    Zr133  O225      0.63879      .   S
    Zr49   O225      0.63879      .   S
    Zr132  O226      1.12452      .   S
    Zr2    O226      1.12452      .   S
    Zr132  O227      0.63713      .   S
    Zr48   O227      0.63713      .   S
    Zr73   O228      1.12372      .   S
    Zr9    O228      1.12372      .   S
    Zr73   O229      0.63707      .   S
    Zr19   O229      0.63707      .   S
    Zr72   O230      1.12375      .   S
    Zr8    O230      1.12375  1_655   S
    Zr72   O231      0.63709      .   S
    Zr18   O231      0.63709      .   S
    Zr75   O232      1.12982      .   S
    Zr3    O232      1.12982      .   S
    Zr75   O233      0.63678      .   S
    Zr19   O233      0.63678      .   S
    Zr74   O234      1.12974      .   S
    Zr2    O234      1.12974      .   S
    Zr74   O235      0.63680      .   S
    Zr18   O235      0.63680      .   S
    Zr135  O236      0.63708      .   S
    Zr49   O236      0.63708      .   S
    Zr135  O237      1.13298      .   S
    Zr8    O237      1.13298      .   S
    Zr134  O238      0.63708      .   S
    Zr48   O238      0.63708      .   S
    Zr134  O239      1.13299      .   S
    Zr9    O239      1.13299      .   S
    Zr2    O240      1.15404      .   S
    Zr118  O240      1.15404      .   S
    Zr2    O241      1.11449      .   S
    Zr80   O241      1.11449      .   S
    Zr3    O242      1.15398      .   S
    Zr119  O242      1.15398      .   S
    Zr3    O243      1.11438      .   S
    Zr81   O243      1.11438      .   S
    Zr9    O244      1.14602      .   S
    Zr83   O244      1.14602      .   S
    Zr9    O245      1.11852      .   S
    Zr116  O245      1.11852      .   S
    Zr8    O246      1.14605  1_655   S
    Zr82   O246      1.14605      .   S
    Zr8    O247      1.11124      .   S
    Zr117  O247      1.11124      .   S
    Zr118  O248      0.63478      .   S
    Zr40   O248      0.63478      .   S
    Zr119  O249      0.63470      .   S
    Zr41   O249      0.63470      .   S
    Zr83   O250      0.63516      .   S
    Zr23   O250      0.63516      .   S
    Zr82   O251      0.63534      .   S
    Zr22   O251      0.63534      .   S
    Zr117  O252      0.64527      .   S
    Zr41   O252      0.64527      .   S
    Zr116  O253      0.64277      .   S
    Zr40   O253      0.64277      .   S
    Zr80   O254      0.64093      .   S
    Zr22   O254      0.64093      .   S
    Zr81   O255      0.64077      .   S
    Zr23   O255      0.64077      .   S
    Zr47   O256      0.64111      .   S
    Zr129  O256      0.64111      .   S
    Zr47   O257      0.63520      .   S
    Zr131  O257      0.63520      .   S
    Zr46   O258      0.64112      .   S
    Zr128  O258      0.64112      .   S
    Zr46   O259      0.63525      .   S
    Zr130  O259      0.63525      .   S
    Zr17   O260      0.64231      .   S
    Zr69   O260      0.64231      .   S
    Zr17   O261      0.63506      .   S
    Zr71   O261      0.63506      .   S
    Zr16   O262      0.64222      .   S
    Zr68   O262      0.64222      .   S
    Zr16   O263      0.63499      .   S
    Zr70   O263      0.63499      .   S
    Zr129  O264      1.11352      .   S
    Zr11   O264      1.11352      .   S
    Zr128  O265      1.11385      .   S
    Zr10   O265      1.11385      .   S
    Zr69   O266      1.12061      .   S
    Zr0    O266      1.12061      .   S
    Zr68   O267      1.15761      .   S
    Zr1    O267      1.15761      .   S
    Zr131  O268      1.11672      .   S
    Zr1    O268      1.11672  1_455   S
    Zr130  O269      1.14845      .   S
    Zr0    O269      1.14845      .   S
    Zr71   O270      1.15264      .   S
    Zr11   O270      1.15264      .   S
    Zr70   O271      1.15314      .   S
    Zr10   O271      1.15314      .   S
    Zr43   O272      0.63661      .   S
    Zr123  O272      0.63661      .   S
    Zr43   O273      0.63710      .   S
    Zr121  O273      0.63710      .   S
    Zr42   O274      0.63668      .   S
    Zr122  O274      0.63668      .   S
    Zr42   O275      0.63701      .   S
    Zr120  O275      0.63701      .   S
    Zr25   O276      0.63709      .   S
    Zr87   O276      0.63709      .   S
    Zr25   O277      0.63683      .   S
    Zr85   O277      0.63683      .   S
    Zr24   O278      0.63707      .   S
    Zr86   O278      0.63707      .   S
    Zr24   O279      0.63683      .   S
    Zr84   O279      0.63683      .   S
    Zr0    O280      1.13290      .   S
    Zr87   O280      1.13290      .   S
    Zr0    O281      1.12381      .   S
    Zr120  O281      1.12381      .   S
    Zr0    O282      1.14474      .   S
    Zr126  O282      1.14474      .   S
    Zr0    O283      1.17508      .   S
    Zr65   O283      1.17508      .   S
    Zr1    O284      1.17102      .   S
    Zr86   O284      1.17102      .   S
    Zr1    O285      1.10498  1_455   S
    Zr121  O285      1.10498      .   S
    Zr1    O286      1.09107  1_455   S
    Zr127  O286      1.09107      .   S
    Zr1    O287      1.19552      .   S
    Zr64   O287      1.19552      .   S
    Zr11   O288      1.13064      .   S
    Zr123  O288      1.13064      .   S
    Zr11   O289      1.12362      .   S
    Zr85   O289      1.12362      .   S
    Zr11   O290      1.13945      .   S
    Zr67   O290      1.13945      .   S
    Zr11   O291      1.17264      .   S
    Zr125  O291      1.17264      .   S
    Zr10   O292      1.13066      .   S
    Zr122  O292      1.13066      .   S
    Zr10   O293      1.12356      .   S
    Zr84   O293      1.12356      .   S
    Zr10   O294      1.13951      .   S
    Zr66   O294      1.13951      .   S
    Zr10   O295      1.17329      .   S
    Zr124  O295      1.17329      .   S
    Zr67   O296      0.64524      .   S
    Zr21   O296      0.64524      .   S
    Zr66   O297      0.64526      .   S
    Zr20   O297      0.64526      .   S
    Zr127  O298      0.64524      .   S
    Zr51   O298      0.64524      .   S
    Zr126  O299      0.64553      .   S
    Zr50   O299      0.64553      .   S
    Zr125  O300      0.63443      .   S
    Zr51   O300      0.63443      .   S
    Zr124  O301      0.63444      .   S
    Zr50   O301      0.63444      .   S
    Zr65   O302      0.63419      .   S
    Zr21   O302      0.63419      .   S
    Zr64   O303      0.63416      .   S
    Zr20   O303      0.63416      .   S
    Zr39   O304      0.63361      .   S
    Zr101  O304      0.63361      .   S
    Zr39   O305      0.64643      .   S
    Zr103  O305      0.64643      .   S
    Zr101  O306      1.17675      .   S
    Zr7    O306      1.17675      .   S
    Zr57   O307      0.63460      .   S
    Zr137  O307      0.63460      .   S
    Zr57   O308      0.64429      .   S
    Zr139  O308      0.64429      .   S
    Zr56   O309      0.63471      .   S
    Zr136  O309      0.63471      .   S
    Zr56   O310      0.64400      .   S
    Zr138  O310      0.64400      .   S
    Zr38   O311      0.63364      .   S
    Zr100  O311      0.63364      .   S
    Zr38   O312      0.64575      .   S
    Zr102  O312      0.64575      .   S
    Zr100  O313      1.17468      .   S
    Zr6    O313      1.17468      .   S
    Zr137  O314      1.17380      .   S
    Zr12   O314      1.17380      .   S
    Zr136  O315      1.19146      .   S
    Zr13   O315      1.19146      .   S
    Zr139  O316      1.13144      .   S
    Zr7    O316      1.13144      .   S
    Zr138  O317      1.13282      .   S
    Zr6    O317      1.13282      .   S
    Zr103  O318      1.09212      .   S
    Zr13   O318      1.09212  1_455   S
    Zr102  O319      1.13512      .   S
    Zr12   O319      1.13512      .   S
    Zr157  O320      0.63712      .   S
    Zr61   O320      0.63712      .   S
    Zr157  O321      1.12640      .   S
    Zr7    O321      1.12640      .   S
    Zr156  O322      0.63705      .   S
    Zr60   O322      0.63705      .   S
    Zr156  O323      1.12387      .   S
    Zr6    O323      1.12387      .   S
    Zr96   O324      1.12391      .   S
    Zr12   O324      1.12391      .   S
    Zr96   O325      0.63683      .   S
    Zr30   O325      0.63683      .   S
    Zr97   O326      1.10749      .   S
    Zr13   O326      1.10749  1_455   S
    Zr97   O327      0.63693      .   S
    Zr31   O327      0.63693      .   S
    Zr99   O328      1.12740      .   S
    Zr7    O328      1.12740      .   S
    Zr99   O329      0.63629      .   S
    Zr31   O329      0.63629      .   S
    Zr159  O330      0.63721      .   S
    Zr61   O330      0.63721      .   S
    Zr159  O331      1.13233      .   S
    Zr12   O331      1.13233      .   S
    Zr98   O332      1.12695      .   S
    Zr6    O332      1.12695      .   S
    Zr98   O333      0.63650      .   S
    Zr30   O333      0.63650      .   S
    Zr158  O334      0.63718      .   S
    Zr60   O334      0.63718      .   S
    Zr158  O335      1.16528      .   S
    Zr13   O335      1.16528      .   S
    Zr7    O336      1.15769      .   S
    Zr143  O336      1.15769      .   S
    Zr7    O337      1.11384      .   S
    Zr105  O337      1.11384      .   S
    Zr6    O338      1.15541      .   S
    Zr142  O338      1.15541      .   S
    Zr6    O339      1.11705      .   S
    Zr104  O339      1.11705      .   S
    Zr12   O340      1.11872      .   S
    Zr141  O340      1.11872      .   S
    Zr12   O341      1.15051      .   S
    Zr106  O341      1.15051      .   S
    Zr13   O342      1.15103      .   S
    Zr140  O342      1.15103      .   S
    Zr13   O343      1.12130  1_455   S
    Zr107  O343      1.12130      .   S
    Zr143  O344      0.63422      .   S
    Zr53   O344      0.63422      .   S
    Zr141  O345      0.64331      .   S
    Zr53   O345      0.64331      .   S
    Zr142  O346      0.63449      .   S
    Zr52   O346      0.63449      .   S
    Zr140  O347      0.64318      .   S
    Zr52   O347      0.64318      .   S
    Zr106  O348      0.63560      .   S
    Zr34   O348      0.63560      .   S
    Zr104  O349      0.64097      .   S
    Zr34   O349      0.64097      .   S
    Zr107  O350      0.63577      .   S
    Zr35   O350      0.63577      .   S
    Zr105  O351      0.64018      .   S
    Zr35   O351      0.64018      .   S
    Zr67   O352      1.46811      .   S
    Zr0    O352      1.46811      .   S
    Zr78   O353      1.49261      .   S
    Zr2    O353      1.49261      .   S
    Zr79   O354      1.49272      .   S
    Zr3    O354      1.49272      .   S
    Zr90   O355      1.47746      .   S
    Zr5    O355      1.47746      .   S
    Zr91   O356      1.47650      .   S
    Zr4    O356      1.47650      .   S
    Zr103  O357      1.48309      .   S
    Zr7    O357      1.48309      .   S
    Zr114  O358      1.49126      .   S
    Zr9    O358      1.49126      .   S
    Zr115  O359      1.49146      .   S
    Zr8    O359      1.49146      .   S
    Zr126  O360      1.48687      .   S
    Zr10   O360      1.48687      .   S
    Zr127  O361      1.48884      .   S
    Zr11   O361      1.48884      .   S
    Zr150  O362      1.47163      .   S
    Zr14   O362      1.47163      .   S
    Zr151  O363      1.46897      .   S
    Zr15   O363      1.46897      .   S
    N364   O365      1.06712      .   S
    Zr46   O365      1.81160      .   S
    N364   O366      1.07027  1_565   S
    Zr48   O366      1.81560      .   S
    N367   O368      1.06870      .   S
    Zr62   O368      1.81181      .   S
    N367   O369      1.06918      .   S
    Zr26   O369      1.81274      .   S
    N370   O371      1.06784      .   S
    Zr23   O371      1.81239      .   S
    N370   O372      1.06874  1_545   S
    Zr25   O372      1.81390      .   S
    N373   O374      1.06830      .   S
    Zr31   O374      1.81337      .   S
    N373   O375      1.06819      .   S
    Zr29   O375      1.81225  1_554   S
    N376   O377      1.06867      .   S
    Zr63   O377      1.81168      .   S
    N376   O378      1.06928      .   S
    Zr27   O378      1.81282      .   S
    N379   O380      1.06826      .   S
    Zr30   O380      1.81330      .   S
    N379   O381      1.06833      .   S
    Zr28   O381      1.81255  1_554   S
    N382   O383      1.06840      .   S
    Zr32   O383      1.81138      .   S
    N382   O384      1.06850      .   S
    Zr44   O384      1.81163      .   S
    N385   O386      1.06874  1_545   S
    Zr24   O386      1.81391      .   S
    N385   O387      1.06773      .   S
    Zr22   O387      1.81188      .   S
    N388   O389      1.06839      .   S
    Zr57   O389      1.81180      .   S
    N388   O390      1.06763      .   S
    Zr21   O390      1.80998      .   S
    N391   O392      1.06775      .   S
    Zr33   O392      1.81064      .   S
    N391   O393      1.06909      .   S
    Zr45   O393      1.81217      .   S
    N394   O395      1.06818      .   S
    Zr18   O395      1.81306      .   S
    N394   O396      1.06808      .   S
    Zr16   O396      1.81213      .   S
    N397   O398      1.06909      .   S
    Zr51   O398      1.81266      .   S
    N397   O399      1.06902      .   S
    Zr39   O399      1.81219      .   S
    N400   O401      1.06778      .   S
    Zr41   O401      1.81178      .   S
    N400   O402      1.06846      .   S
    Zr43   O402      1.81345      .   S
    N403   O404      1.06779      .   S
    Zr40   O404      1.81161      .   S
    N403   O405      1.06841      .   S
    Zr42   O405      1.81338      .   S
    N406   O407      1.06813      .   S
    Zr35   O407      1.81197  1_556   S
    N406   O408      1.06832  1_565   S
    Zr37   O408      1.81326      .   S
    N409   O410      1.06837      .   S
    Zr55   O410      1.81329      .   S
    N409   O411      1.06764      .   S
    Zr53   O411      1.81131  1_556   S
    N412   O413      1.06833      .   S
    Zr54   O413      1.81325      .   S
    N412   O414      1.06749      .   S
    Zr52   O414      1.81085  1_556   S
    N415   O416      1.06926      .   S
    Zr50   O416      1.81308      .   S
    N415   O417      1.06919      .   S
    Zr38   O417      1.81366      .   S
    N418   O419      1.06707      .   S
    Zr47   O419      1.81157      .   S
    N418   O420      1.07027  1_565   S
    Zr49   O420      1.81557      .   S
    N421   O422      1.06830      .   S
    Zr58   O422      1.81267  1_554   S
    N421   O423      1.06814  1_545   S
    Zr60   O423      1.81276      .   S
    N424   O425      1.06906      .   S
    Zr19   O425      1.81168      .   S
    N424   O426      1.06888      .   S
    Zr17   O426      1.81287      .   S
    N427   O428      1.06772      .   S
    Zr20   O428      1.81032      .   S
    N427   O429      1.06826      .   S
    Zr56   O429      1.81288      .   S
    N430   O431      1.06394      .   S
    Zr34   O431      1.80792  1_556   S
    N430   O432      1.07006  1_565   S
    Zr36   O432      1.81524      .   S
    N433   O434      1.06870  1_545   S
    Zr61   O434      1.81394      .   S
    N433   O435      1.06893      .   S
    Zr59   O435      1.81386  1_554   S
