# CIF file generated by openbabel 2.4.90, see http://openbabel.sf.net
data_I
_chemical_name_common ''
_cell_length_a 16.645
_cell_length_b 16.816
_cell_length_c 27.26
_cell_angle_alpha 90.069
_cell_angle_beta 90.16
_cell_angle_gamma 89.401
_space_group_name_H-M_alt 'P 1'
_space_group_name_Hall 'P 1'
loop_
    _symmetry_equiv_pos_as_xyz
    x,y,z
loop_
    _atom_site_label
    _atom_site_type_symbol
    _atom_site_fract_x
    _atom_site_fract_y
    _atom_site_fract_z
    _atom_site_occupancy
    C0      C    0.50759   0.78277   0.57661   1.000
    C1      C    0.00000   0.78276   0.57662   1.000
    C2      C    0.24731   0.28356   0.42321   1.000
    C3      C    0.74728   0.28357   0.42322   1.000
    C4      C    0.99477   0.21940   0.07638   1.000
    C5      C    0.49506   0.21973   0.07624   1.000
    C6      C    0.25624   0.71836   0.92399   1.000
    C7      C    0.75617   0.71795   0.92312   1.000
    C8      C    0.99641   0.22078   0.42374   1.000
    C9      C    0.49639   0.22076   0.42372   1.000
    C10     C    0.25665   0.72046   0.57694   1.000
    C11     C    0.75653   0.72044   0.57678   1.000
    C12     C    0.50666   0.78064   0.92446   1.000
    C13     C    0.00000   0.78026   0.92464   1.000
    C14     C    0.24532   0.28146   0.07664   1.000
    C15     C    0.74534   0.28114   0.07663   1.000
    C16     C    0.44073   0.46297   0.40413   1.000
    C17     C    0.94081   0.46304   0.40415   1.000
    C18     C    0.16741   0.52361   0.47073   1.000
    C19     C    0.66733   0.52367   0.47066   1.000
    C20     C    0.46641   0.68736   0.46461   1.000
    C21     C    0.96658   0.68740   0.46466   1.000
    C22     C    0.21307   0.58869   0.67259   1.000
    C23     C    0.71282   0.58840   0.67251   1.000
    C24     C    0.30946   0.95779   0.59809   1.000
    C25     C    0.80940   0.95778   0.59808   1.000
    C26     C    0.08590   0.02771   0.52953   1.000
    C27     C    0.58586   0.02772   0.52952   1.000
    C28     C    0.29069   0.18240   0.53674   1.000
    C29     C    0.79065   0.18240   0.53676   1.000
    C30     C    0.04253   0.08933   0.32556   1.000
    C31     C    0.54250   0.08933   0.32552   1.000
    C32     C    0.06222   0.53680   0.90565   1.000
    C33     C    0.56195   0.53736   0.90550   1.000
    C34     C    0.33446   0.47791   0.97056   1.000
    C35     C    0.83456   0.47761   0.97054   1.000
    C36     C    0.03397   0.31207   0.96467   1.000
    C37     C    0.53403   0.31257   0.96456   1.000
    C38     C    0.28998   0.41443   0.17364   1.000
    C39     C    0.78982   0.41438   0.17367   1.000
    C40     C    0.19341   0.04400   0.09751   1.000
    C41     C    0.69337   0.04457   0.09758   1.000
    C42     C    0.41854   0.97518   0.03114   1.000
    C43     C    0.91794   0.97406   0.03114   1.000
    C44     C    0.21463   0.81926   0.03637   1.000
    C45     C    0.71281   0.81971   0.03641   1.000
    C46     C    0.46248   0.91180   0.82678   1.000
    C47     C    0.96245   0.90996   0.82710   1.000
    C48     C    0.06287   0.54061   0.59592   1.000
    C49     C    0.56290   0.54059   0.59591   1.000
    C50     C    0.33622   0.47986   0.52952   1.000
    C51     C    0.83620   0.47987   0.52951   1.000
    C52     C    0.03715   0.31621   0.53549   1.000
    C53     C    0.53717   0.31619   0.53547   1.000
    C54     C    0.29013   0.41542   0.32536   1.000
    C55     C    0.79005   0.41543   0.32500   1.000
    C56     C    0.19438   0.04605   0.40200   1.000
    C57     C    0.69440   0.04606   0.40202   1.000
    C58     C    0.41791   0.97610   0.47060   1.000
    C59     C    0.91796   0.97615   0.47059   1.000
    C60     C    0.21315   0.82139   0.46326   1.000
    C61     C    0.71326   0.82137   0.46322   1.000
    C62     C    0.46197   0.91264   0.67508   1.000
    C63     C    0.96196   0.91275   0.67540   1.000
    C64     C    0.43985   0.46435   0.09535   1.000
    C65     C    0.93950   0.46412   0.09528   1.000
    C66     C    0.16728   0.52071   0.02975   1.000
    C67     C    0.66748   0.52077   0.02954   1.000
    C68     C    0.46969   0.68814   0.03526   1.000
    C69     C    0.96945   0.68805   0.03539   1.000
    C70     C    0.21495   0.58378   0.82428   1.000
    C71     C    0.71359   0.58296   0.82419   1.000
    C72     C    0.30788   0.95495   0.90300   1.000
    C73     C    0.80839   0.95526   0.90258   1.000
    C74     C    0.08361   0.02476   0.97015   1.000
    C75     C    0.58382   0.02425   0.96958   1.000
    C76     C    0.28811   0.17980   0.96426   1.000
    C77     C    0.78830   0.17948   0.96460   1.000
    C78     C    0.04242   0.08918   0.17384   1.000
    C79     C    0.54240   0.08922   0.17380   1.000
    C80     C    0.06137   0.75461   0.75111   1.000
    C81     C    0.56091   0.75436   0.75084   1.000
    C82     C    0.19079   0.25833   0.24998   1.000
    C83     C    0.69077   0.25834   0.24997   1.000
    C84     C    0.44181   0.24573   0.24999   1.000
    C85     C    0.94176   0.24577   0.25002   1.000
    C86     C    0.31189   0.74485   0.75037   1.000
    C87     C    0.81249   0.74348   0.74983   1.000
    C88     C    0.47948   0.50584   0.42248   1.000
    C89     C    0.97957   0.50589   0.42252   1.000
    C90     C    0.05869   0.48389   0.43483   1.000
    C91     C    0.55861   0.48388   0.43400   1.000
    C92     C    0.10625   0.53877   0.45960   1.000
    C93     C    0.60615   0.53879   0.45962   1.000
    C94     C    0.07260   0.61267   0.47184   1.000
    C95     C    0.57247   0.61269   0.47178   1.000
    C96     C    0.49362   0.62960   0.45600   1.000
    C97     C    0.99376   0.62963   0.45635   1.000
    C98     C    0.11754   0.66947   0.50336   1.000
    C99     C    0.61744   0.66951   0.50326   1.000
    C100    C    0.08960   0.40225   0.42403   1.000
    C101    C    0.58956   0.40224   0.42401   1.000
    C102    C    0.18998   0.61336   0.70680   1.000
    C103    C    0.68951   0.61298   0.70677   1.000
    C104    C    0.13393   0.67631   0.70579   1.000
    C105    C    0.63358   0.67602   0.70563   1.000
    C106    C    0.10679   0.71156   0.65855   1.000
    C107    C    0.60668   0.71147   0.65842   1.000
    C108    C    0.27222   0.00215   0.57928   1.000
    C109    C    0.77217   0.00214   0.57928   1.000
    C110    C    0.19297   0.98332   0.56619   1.000
    C111    C    0.69292   0.98331   0.56618   1.000
    C112    C    0.14719   0.04018   0.54104   1.000
    C113    C    0.64714   0.04019   0.54104   1.000
    C114    C    0.18285   0.11261   0.52924   1.000
    C115    C    0.68281   0.11261   0.52924   1.000
    C116    C    0.26186   0.12606   0.54512   1.000
    C117    C    0.76181   0.12606   0.54514   1.000
    C118    C    0.13996   0.17177   0.49775   1.000
    C119    C    0.63994   0.17177   0.49770   1.000
    C120    C    0.16105   0.90250   0.57644   1.000
    C121    C    0.66100   0.90249   0.57642   1.000
    C122    C    0.06539   0.11525   0.29174   1.000
    C123    C    0.56537   0.11526   0.29170   1.000
    C124    C    0.11992   0.17831   0.29395   1.000
    C125    C    0.61989   0.17832   0.29393   1.000
    C126    C    0.14655   0.21211   0.34167   1.000
    C127    C    0.64653   0.21211   0.34165   1.000
    C128    C    0.02293   0.49414   0.92355   1.000
    C129    C    0.52274   0.49465   0.92347   1.000
    C130    C    0.44373   0.51716   0.93551   1.000
    C131    C    0.94392   0.51673   0.93554   1.000
    C132    C    0.39559   0.46238   0.95978   1.000
    C133    C    0.89569   0.46201   0.95979   1.000
    C134    C    0.42858   0.38807   0.97170   1.000
    C135    C    0.92860   0.38768   0.97175   1.000
    C136    C    0.00737   0.37018   0.95658   1.000
    C137    C    0.50735   0.37067   0.95650   1.000
    C138    C    0.38312   0.33129   0.00274   1.000
    C139    C    0.88306   0.33099   0.00279   1.000
    C140    C    0.41369   0.59923   0.92501   1.000
    C141    C    0.91406   0.59887   0.92505   1.000
    C142    C    0.31344   0.38876   0.20760   1.000
    C143    C    0.81331   0.38874   0.20763   1.000
    C144    C    0.36928   0.32569   0.20569   1.000
    C145    C    0.86917   0.32570   0.20573   1.000
    C146    C    0.39612   0.29156   0.15809   1.000
    C147    C    0.89602   0.29152   0.15815   1.000
    C148    C    0.23127   0.99980   0.07909   1.000
    C149    C    0.73085   0.00000   0.07913   1.000
    C150    C    0.31061   0.01903   0.06670   1.000
    C151    C    0.81030   0.01871   0.06676   1.000
    C152    C    0.35716   0.96236   0.04206   1.000
    C153    C    0.85646   0.96167   0.04205   1.000
    C154    C    0.32214   0.88974   0.02980   1.000
    C155    C    0.82087   0.88931   0.02980   1.000
    C156    C    0.24299   0.87582   0.04000   1.000
    C157    C    0.74158   0.87603   0.04506   1.000
    C158    C    0.36597   0.83098   0.99857   1.000
    C159    C    0.86389   0.82986   0.99869   1.000
    C160    C    0.34206   0.10002   0.07724   1.000
    C161    C    0.84238   0.09943   0.07723   1.000
    C162    C    0.43915   0.88633   0.79283   1.000
    C163    C    0.93926   0.88477   0.79303   1.000
    C164    C    0.38373   0.82403   0.79470   1.000
    C165    C    0.88414   0.82220   0.79460   1.000
    C166    C    0.35707   0.79078   0.84250   1.000
    C167    C    0.85701   0.78808   0.84195   1.000
    C168    C    0.02410   0.49775   0.57750   1.000
    C169    C    0.52414   0.49773   0.57757   1.000
    C170    C    0.44499   0.51970   0.56530   1.000
    C171    C    0.94497   0.51973   0.56529   1.000
    C172    C    0.39741   0.46475   0.54054   1.000
    C173    C    0.89739   0.46477   0.54054   1.000
    C174    C    0.43109   0.39086   0.52838   1.000
    C175    C    0.93107   0.39087   0.52839   1.000
    C176    C    0.00994   0.37397   0.54381   1.000
    C177    C    0.50997   0.37395   0.54379   1.000
    C178    C    0.38592   0.33406   0.49701   1.000
    C179    C    0.88591   0.33406   0.49700   1.000
    C180    C    0.41407   0.60137   0.57606   1.000
    C181    C    0.91405   0.60140   0.57604   1.000
    C182    C    0.31354   0.38933   0.29155   1.000
    C183    C    0.81345   0.38934   0.29159   1.000
    C184    C    0.36941   0.32629   0.29383   1.000
    C185    C    0.86935   0.32632   0.29387   1.000
    C186    C    0.39618   0.29284   0.34168   1.000
    C187    C    0.89616   0.29287   0.34171   1.000
    C188    C    0.23161   0.00000   0.42081   1.000
    C189    C    0.73165   0.00000   0.42082   1.000
    C190    C    0.31085   0.02052   0.43392   1.000
    C191    C    0.81088   0.02055   0.43393   1.000
    C192    C    0.35663   0.96362   0.45907   1.000
    C193    C    0.85668   0.96366   0.45907   1.000
    C194    C    0.32099   0.89117   0.47084   1.000
    C195    C    0.82107   0.89119   0.47083   1.000
    C196    C    0.24199   0.87774   0.45490   1.000
    C197    C    0.74207   0.87774   0.45490   1.000
    C198    C    0.36379   0.83188   0.50232   1.000
    C199    C    0.86388   0.83189   0.50230   1.000
    C200    C    0.34286   0.10131   0.42362   1.000
    C201    C    0.84288   0.10133   0.42363   1.000
    C202    C    0.43893   0.88675   0.70886   1.000
    C203    C    0.93901   0.88632   0.70900   1.000
    C204    C    0.38373   0.82429   0.70653   1.000
    C205    C    0.88400   0.82374   0.70641   1.000
    C206    C    0.35699   0.79101   0.65867   1.000
    C207    C    0.85710   0.79089   0.65849   1.000
    C208    C    0.47938   0.50647   0.07710   1.000
    C209    C    0.97906   0.50628   0.07716   1.000
    C210    C    0.05781   0.48289   0.06514   1.000
    C211    C    0.55811   0.48305   0.06510   1.000
    C212    C    0.10637   0.53691   0.04059   1.000
    C213    C    0.60661   0.53701   0.04044   1.000
    C214    C    0.07403   0.61133   0.02833   1.000
    C215    C    0.57426   0.61143   0.02818   1.000
    C216    C    0.49581   0.62987   0.04349   1.000
    C217    C    0.99554   0.62975   0.04359   1.000
    C218    C    0.12035   0.66684   0.99701   1.000
    C219    C    0.62047   0.66688   0.99671   1.000
    C220    C    0.08730   0.40072   0.07586   1.000
    C221    C    0.58752   0.40086   0.07584   1.000
    C222    C    0.19091   0.61046   0.79077   1.000
    C223    C    0.68986   0.60982   0.79066   1.000
    C224    C    0.13462   0.67305   0.79380   1.000
    C225    C    0.63373   0.67256   0.79370   1.000
    C226    C    0.10884   0.70477   0.84238   1.000
    C227    C    0.60785   0.70449   0.84211   1.000
    C228    C    0.27037   0.99928   0.92165   1.000
    C229    C    0.77082   0.99938   0.92130   1.000
    C230    C    0.19103   0.98049   0.93417   1.000
    C231    C    0.69144   0.98038   0.93360   1.000
    C232    C    0.14496   0.03735   0.95907   1.000
    C233    C    0.64523   0.03700   0.95866   1.000
    C234    C    0.18033   0.10981   0.97116   1.000
    C235    C    0.68048   0.10942   0.97106   1.000
    C236    C    0.25944   0.12337   0.95574   1.000
    C237    C    0.75969   0.12311   0.95584   1.000
    C238    C    0.13699   0.16888   0.00245   1.000
    C239    C    0.63706   0.16851   0.00237   1.000
    C240    C    0.15850   0.90002   0.92362   1.000
    C241    C    0.65914   0.89993   0.92252   1.000
    C242    C    0.06531   0.11519   0.20775   1.000
    C243    C    0.56530   0.11522   0.20771   1.000
    C244    C    0.11979   0.17826   0.20577   1.000
    C245    C    0.61978   0.17828   0.20574   1.000
    C246    C    0.14643   0.21209   0.15824   1.000
    C247    C    0.64650   0.21210   0.15823   1.000
    C248    C    0.10496   0.70592   0.75035   1.000
    C249    C    0.60440   0.70558   0.75014   1.000
    C250    C    0.14833   0.20955   0.24992   1.000
    C251    C    0.64831   0.20957   0.24989   1.000
    C252    C    0.39843   0.29461   0.24986   1.000
    C253    C    0.89837   0.29465   0.24989   1.000
    C254    C    0.35493   0.79315   0.75054   1.000
    C255    C    0.85538   0.79189   0.75023   1.000
    C256    C    0.44737   0.57776   0.43194   1.000
    C257    C    0.94750   0.57783   0.43197   1.000
    C258    C    0.30629   0.07247   0.56997   1.000
    C259    C    0.80624   0.07247   0.56998   1.000
    C260    C    0.05424   0.42178   0.93274   1.000
    C261    C    0.55414   0.42233   0.93264   1.000
    C262    C    0.19783   0.92920   0.06945   1.000
    C263    C    0.69685   0.92973   0.06953   1.000
    C264    C    0.05621   0.42583   0.56810   1.000
    C265    C    0.55624   0.42581   0.56811   1.000
    C266    C    0.19756   0.93135   0.43000   1.000
    C267    C    0.69762   0.93134   0.43008   1.000
    C268    C    0.44865   0.57898   0.06772   1.000
    C269    C    0.94834   0.57880   0.06774   1.000
    C270    C    0.30421   0.06972   0.93123   1.000
    C271    C    0.80461   0.06972   0.93120   1.000
    C272    C    0.21799   0.58009   0.74831   1.000
    C273    C    0.71713   0.57950   0.74824   1.000
    C274    C    0.03868   0.08330   0.24969   1.000
    C275    C    0.53866   0.08333   0.24965   1.000
    C276    C    0.28613   0.42099   0.24948   1.000
    C277    C    0.78601   0.42097   0.24952   1.000
    C278    C    0.46613   0.91812   0.75095   1.000
    C279    C    0.96611   0.91720   0.75130   1.000
    C280    C    0.04835   0.76056   0.65819   1.000
    C281    C    0.54833   0.76060   0.65811   1.000
    C282    C    0.14217   0.69066   0.61842   1.000
    C283    C    0.64209   0.69064   0.61829   1.000
    C284    C    0.08357   0.73571   0.51510   1.000
    C285    C    0.58349   0.73574   0.51508   1.000
    C286    C    0.18726   0.64970   0.51830   1.000
    C287    C    0.68721   0.64975   0.51813   1.000
    C288    C    0.03821   0.34718   0.41898   1.000
    C289    C    0.53820   0.34716   0.41897   1.000
    C290    C    0.16529   0.39143   0.42121   1.000
    C291    C    0.66526   0.39144   0.42121   1.000
    C292    C    0.20464   0.26035   0.34230   1.000
    C293    C    0.70463   0.26034   0.34228   1.000
    C294    C    0.11113   0.19089   0.38154   1.000
    C295    C    0.61113   0.19088   0.38152   1.000
    C296    C    0.17659   0.23544   0.48561   1.000
    C297    C    0.67657   0.23544   0.48561   1.000
    C298    C    0.06908   0.15633   0.48346   1.000
    C299    C    0.56906   0.15634   0.48345   1.000
    C300    C    0.21220   0.84669   0.58319   1.000
    C301    C    0.71217   0.84669   0.58316   1.000
    C302    C    0.08527   0.89267   0.57722   1.000
    C303    C    0.58522   0.89265   0.57721   1.000
    C304    C    0.45492   0.24294   0.15750   1.000
    C305    C    0.95478   0.24283   0.15762   1.000
    C306    C    0.36017   0.31279   0.11815   1.000
    C307    C    0.86014   0.31274   0.11819   1.000
    C308    C    0.41706   0.26528   0.01508   1.000
    C309    C    0.91688   0.26491   0.01516   1.000
    C310    C    0.31293   0.35071   0.01680   1.000
    C311    C    0.81291   0.35058   0.01683   1.000
    C312    C    0.46566   0.65383   0.92077   1.000
    C313    C    0.96622   0.65334   0.92094   1.000
    C314    C    0.33819   0.61089   0.92162   1.000
    C315    C    0.83863   0.61074   0.92155   1.000
    C316    C    0.29887   0.74281   0.84337   1.000
    C317    C    0.79894   0.73994   0.84209   1.000
    C318    C    0.39298   0.81242   0.88232   1.000
    C319    C    0.89206   0.80911   0.88224   1.000
    C320    C    0.32974   0.76748   0.98544   1.000
    C321    C    0.82645   0.76712   0.98564   1.000
    C322    C    0.43726   0.84653   0.98533   1.000
    C323    C    0.93552   0.84397   0.98545   1.000
    C324    C    0.29076   0.15587   0.08320   1.000
    C325    C    0.79154   0.15577   0.08326   1.000
    C326    C    0.41779   0.10995   0.07870   1.000
    C327    C    0.91822   0.10860   0.07881   1.000
    C328    C    0.45421   0.24332   0.34272   1.000
    C329    C    0.95420   0.24337   0.34275   1.000
    C330    C    0.36073   0.31569   0.38137   1.000
    C331    C    0.86070   0.31571   0.38140   1.000
    C332    C    0.41988   0.26802   0.48470   1.000
    C333    C    0.91989   0.26803   0.48400   1.000
    C334    C    0.31585   0.35363   0.48263   1.000
    C335    C    0.81584   0.35362   0.48264   1.000
    C336    C    0.46548   0.65643   0.58100   1.000
    C337    C    0.96547   0.65644   0.58108   1.000
    C338    C    0.33840   0.61224   0.57885   1.000
    C339    C    0.83837   0.61230   0.57870   1.000
    C340    C    0.29873   0.74296   0.65796   1.000
    C341    C    0.79877   0.74292   0.65772   1.000
    C342    C    0.39231   0.81239   0.61877   1.000
    C343    C    0.89240   0.81248   0.61865   1.000
    C344    C    0.32698   0.76822   0.51433   1.000
    C345    C    0.82705   0.76823   0.51429   1.000
    C346    C    0.43463   0.84714   0.51674   1.000
    C347    C    0.93472   0.84712   0.51672   1.000
    C348    C    0.29184   0.15725   0.41679   1.000
    C349    C    0.79185   0.15727   0.41600   1.000
    C350    C    0.41868   0.11093   0.42289   1.000
    C351    C    0.91869   0.11095   0.42288   1.000
    C352    C    0.05058   0.75396   0.84449   1.000
    C353    C    0.54939   0.75344   0.84412   1.000
    C354    C    0.14607   0.68077   0.88120   1.000
    C355    C    0.64535   0.68095   0.88097   1.000
    C356    C    0.08734   0.73286   0.98362   1.000
    C357    C    0.58741   0.73298   0.98348   1.000
    C358    C    0.19057   0.64649   0.98362   1.000
    C359    C    0.69050   0.64636   0.98311   1.000
    C360    C    0.03489   0.34663   0.08055   1.000
    C361    C    0.53500   0.34687   0.08060   1.000
    C362    C    0.16282   0.38865   0.07891   1.000
    C363    C    0.66301   0.38861   0.07885   1.000
    C364    C    0.20467   0.26012   0.15793   1.000
    C365    C    0.70475   0.26012   0.15795   1.000
    C366    C    0.11111   0.19115   0.11808   1.000
    C367    C    0.61128   0.19116   0.11802   1.000
    C368    C    0.17331   0.23283   0.01450   1.000
    C369    C    0.67338   0.23248   0.01453   1.000
    C370    C    0.06623   0.15314   0.01663   1.000
    C371    C    0.56627   0.15289   0.01650   1.000
    C372    C    0.20872   0.84342   0.91677   1.000
    C373    C    0.70948   0.84354   0.91531   1.000
    C374    C    0.08255   0.89130   0.92277   1.000
    C375    C    0.58321   0.89107   0.92156   1.000
    O376    O    0.65522   0.20049   0.00845   1.000
    O377    O    0.60167   0.16070   0.00944   1.000
    O378    O    0.65877   0.13896   0.98672   1.000
    O379    O    0.15515   0.20086   0.00848   1.000
    O380    O    0.10161   0.16101   0.00954   1.000
    O381    O    0.15866   0.13935   0.98681   1.000
    O382    O    0.40009   0.29829   0.00891   1.000
    O383    O    0.34802   0.34100   0.00977   1.000
    O384    O    0.40585   0.35968   0.98722   1.000
    O385    O    0.89997   0.29795   0.00898   1.000
    O386    O    0.84798   0.34078   0.00981   1.000
    O387    O    0.90583   0.35933   0.98727   1.000
    O388    O    0.20932   0.25715   0.04557   1.000
    O389    O    0.70936   0.25681   0.04558   1.000
    O390    O    0.45606   0.24251   0.04566   1.000
    O391    O    0.95582   0.24215   0.04577   1.000
    O392    O    0.53067   0.18631   0.04637   1.000
    O393    O    0.03050   0.18627   0.04651   1.000
    O394    O    0.27913   0.31609   0.04672   1.000
    O395    O    0.77913   0.31586   0.04673   1.000
    O396    O    0.59044   0.57422   0.03431   1.000
    O397    O    0.53504   0.62065   0.03584   1.000
    O398    O    0.59736   0.63915   0.01245   1.000
    O399    O    0.09020   0.57412   0.03446   1.000
    O400    O    0.03478   0.62054   0.03596   1.000
    O401    O    0.09719   0.63909   0.01267   1.000
    O402    O    0.63705   0.52889   0.03499   1.000
    O403    O    0.13683   0.52881   0.03517   1.000
    O404    O    0.83866   0.92549   0.03592   1.000
    O405    O    0.78123   0.88267   0.03743   1.000
    O406    O    0.84238   0.85959   0.01425   1.000
    O407    O    0.28257   0.88278   0.03490   1.000
    O408    O    0.33965   0.92605   0.03593   1.000
    O409    O    0.34405   0.86036   0.01419   1.000
    O410    O    0.38785   0.96877   0.03660   1.000
    O411    O    0.88720   0.96787   0.03660   1.000
    O412    O    0.48275   0.65901   0.03938   1.000
    O413    O    0.98250   0.65890   0.03949   1.000
    O414    O    0.22881   0.84754   0.03819   1.000
    O415    O    0.72720   0.84787   0.04074   1.000
    O416    O    0.22041   0.90251   0.05473   1.000
    O417    O    0.58236   0.51003   0.05277   1.000
    O418    O    0.08209   0.50990   0.05287   1.000
    O419    O    0.83338   0.99019   0.05441   1.000
    O420    O    0.33389   0.99069   0.05438   1.000
    O421    O    0.47223   0.60443   0.05561   1.000
    O422    O    0.97194   0.60428   0.05566   1.000
    O423    O    0.71922   0.90288   0.05730   1.000
    O424    O    0.57282   0.44195   0.07047   1.000
    O425    O    0.51875   0.49476   0.07110   1.000
    O426    O    0.07256   0.44180   0.07050   1.000
    O427    O    0.01844   0.49458   0.07115   1.000
    O428    O    0.32634   0.05952   0.07197   1.000
    O429    O    0.27094   0.00941   0.07290   1.000
    O430    O    0.82634   0.05907   0.07200   1.000
    O431    O    0.77057   0.00935   0.07295   1.000
    O432    O    0.46402   0.54273   0.07241   1.000
    O433    O    0.96370   0.54254   0.07245   1.000
    O434    O    0.21455   0.96450   0.07427   1.000
    O435    O    0.71385   0.96487   0.07433   1.000
    O436    O    0.62527   0.39473   0.07735   1.000
    O437    O    0.56126   0.37386   0.07822   1.000
    O438    O    0.12506   0.39468   0.07739   1.000
    O439    O    0.06109   0.37368   0.07821   1.000
    O440    O    0.45642   0.16484   0.07747   1.000
    O441    O    0.51503   0.28330   0.07842   1.000
    O442    O    0.55317   0.20545   0.09713   1.000
    O443    O    0.47499   0.23134   0.11687   1.000
    O444    O    0.95649   0.16400   0.07760   1.000
    O445    O    0.01483   0.28301   0.07847   1.000
    O446    O    0.05294   0.20527   0.09723   1.000
    O447    O    0.97477   0.23111   0.11700   1.000
    O448    O    0.70418   0.33487   0.07774   1.000
    O449    O    0.76844   0.21845   0.07995   1.000
    O450    O    0.80274   0.29694   0.09741   1.000
    O451    O    0.72505   0.27063   0.11729   1.000
    O452    O    0.20407   0.33506   0.07778   1.000
    O453    O    0.26804   0.21867   0.07992   1.000
    O454    O    0.30275   0.29713   0.09740   1.000
    O455    O    0.22500   0.27079   0.11729   1.000
    O456    O    0.45962   0.48541   0.08623   1.000
    O457    O    0.95928   0.48520   0.08622   1.000
    O458    O    0.88030   0.10402   0.07802   1.000
    O459    O    0.81696   0.12760   0.08025   1.000
    O460    O    0.37993   0.10498   0.07797   1.000
    O461    O    0.31641   0.12794   0.08022   1.000
    O462    O    0.21234   0.02190   0.08830   1.000
    O463    O    0.71211   0.02229   0.08836   1.000
    O464    O    0.62889   0.20163   0.13813   1.000
    O465    O    0.12877   0.20162   0.13816   1.000
    O466    O    0.37814   0.30217   0.13812   1.000
    O467    O    0.87808   0.30213   0.13817   1.000
    O468    O    0.42552   0.26725   0.15779   1.000
    O469    O    0.92540   0.26718   0.15789   1.000
    O470    O    0.17555   0.23611   0.15808   1.000
    O471    O    0.67562   0.23611   0.15809   1.000
    O472    O    0.38270   0.30862   0.18189   1.000
    O473    O    0.88260   0.30861   0.18194   1.000
    O474    O    0.63314   0.19519   0.18199   1.000
    O475    O    0.13311   0.19517   0.18201   1.000
    O476    O    0.30171   0.40159   0.19062   1.000
    O477    O    0.80156   0.40156   0.19065   1.000
    O478    O    0.55385   0.10222   0.19076   1.000
    O479    O    0.05386   0.10219   0.19080   1.000
    O480    O    0.34136   0.35722   0.20665   1.000
    O481    O    0.38386   0.31015   0.22778   1.000
    O482    O    0.84124   0.35722   0.20668   1.000
    O483    O    0.88377   0.31017   0.22781   1.000
    O484    O    0.59254   0.14675   0.20673   1.000
    O485    O    0.63404   0.19392   0.22782   1.000
    O486    O    0.09255   0.14672   0.20676   1.000
    O487    O    0.13406   0.19390   0.22785   1.000
    O488    O    0.29978   0.40487   0.22854   1.000
    O489    O    0.79966   0.40486   0.22858   1.000
    O490    O    0.55198   0.09927   0.22868   1.000
    O491    O    0.05200   0.09924   0.22872   1.000
    O492    O    0.29983   0.40516   0.27052   1.000
    O493    O    0.79973   0.40515   0.27055   1.000
    O494    O    0.55201   0.09929   0.27068   1.000
    O495    O    0.05203   0.09927   0.27071   1.000
    O496    O    0.42012   0.27017   0.24993   1.000
    O497    O    0.38392   0.31045   0.27185   1.000
    O498    O    0.92006   0.27021   0.24996   1.000
    O499    O    0.88386   0.31048   0.27188   1.000
    O500    O    0.66954   0.23395   0.24993   1.000
    O501    O    0.63410   0.19394   0.27191   1.000
    O502    O    0.16956   0.23394   0.24995   1.000
    O503    O    0.13412   0.19393   0.27193   1.000
    O504    O    0.34147   0.35781   0.29269   1.000
    O505    O    0.30184   0.40238   0.30846   1.000
    O506    O    0.84140   0.35783   0.29273   1.000
    O507    O    0.80175   0.40238   0.30830   1.000
    O508    O    0.59263   0.14679   0.29282   1.000
    O509    O    0.55394   0.10229   0.30861   1.000
    O510    O    0.09265   0.14678   0.29285   1.000
    O511    O    0.05396   0.10229   0.30865   1.000
    O512    O    0.38279   0.30956   0.31776   1.000
    O513    O    0.88275   0.30959   0.31779   1.000
    O514    O    0.63321   0.19521   0.31779   1.000
    O515    O    0.13323   0.19521   0.31781   1.000
    O516    O    0.67558   0.23623   0.34197   1.000
    O517    O    0.62883   0.20150   0.36158   1.000
    O518    O    0.17559   0.23623   0.34199   1.000
    O519    O    0.12884   0.20150   0.36161   1.000
    O520    O    0.42520   0.26808   0.34220   1.000
    O521    O    0.37845   0.30426   0.36152   1.000
    O522    O    0.92518   0.26812   0.34223   1.000
    O523    O    0.87843   0.30429   0.36156   1.000
    O524    O    0.72596   0.27195   0.38275   1.000
    O525    O    0.22597   0.27195   0.38276   1.000
    O526    O    0.47530   0.23204   0.38322   1.000
    O527    O    0.97530   0.23207   0.38325   1.000
    O528    O    0.30402   0.29962   0.40229   1.000
    O529    O    0.80399   0.29964   0.40231   1.000
    O530    O    0.55376   0.20582   0.40262   1.000
    O531    O    0.05377   0.20584   0.40264   1.000
    O532    O    0.21299   0.02303   0.41141   1.000
    O533    O    0.71302   0.02303   0.41142   1.000
    O534    O    0.46010   0.48440   0.41331   1.000
    O535    O    0.96019   0.48446   0.41334   1.000
    O536    O    0.76957   0.22042   0.41961   1.000
    O537    O    0.81737   0.12930   0.41982   1.000
    O538    O    0.26958   0.22040   0.42000   1.000
    O539    O    0.31735   0.12928   0.42021   1.000
    O540    O    0.51730   0.28396   0.42135   1.000
    O541    O    0.56388   0.37470   0.42149   1.000
    O542    O    0.01731   0.28398   0.42136   1.000
    O543    O    0.06391   0.37471   0.42151   1.000
    O544    O    0.21458   0.96568   0.42541   1.000
    O545    O    0.27123   0.01026   0.42737   1.000
    O546    O    0.71463   0.96567   0.42545   1.000
    O547    O    0.77126   0.01028   0.42738   1.000
    O548    O    0.70627   0.33750   0.42222   1.000
    O549    O    0.62741   0.39684   0.42261   1.000
    O550    O    0.20630   0.33749   0.42221   1.000
    O551    O    0.12745   0.39684   0.42262   1.000
    O552    O    0.46342   0.54180   0.42721   1.000
    O553    O    0.51905   0.49486   0.42824   1.000
    O554    O    0.96354   0.54186   0.42725   1.000
    O555    O    0.01913   0.49489   0.42868   1.000
    O556    O    0.88079   0.10614   0.42326   1.000
    O557    O    0.95755   0.16586   0.42331   1.000
    O558    O    0.38077   0.10612   0.42326   1.000
    O559    O    0.45753   0.16584   0.42331   1.000
    O560    O    0.28158   0.31859   0.45292   1.000
    O561    O    0.21195   0.25950   0.45441   1.000
    O562    O    0.78156   0.31859   0.45293   1.000
    O563    O    0.71193   0.25950   0.45442   1.000
    O564    O    0.32685   0.06091   0.42877   1.000
    O565    O    0.82688   0.06094   0.42878   1.000
    O566    O    0.53273   0.18855   0.45359   1.000
    O567    O    0.45814   0.24439   0.45421   1.000
    O568    O    0.03274   0.18855   0.45360   1.000
    O569    O    0.95815   0.24440   0.45387   1.000
    O570    O    0.57409   0.44306   0.42901   1.000
    O571    O    0.07414   0.44307   0.42943   1.000
    O572    O    0.21977   0.90455   0.44245   1.000
    O573    O    0.71985   0.90454   0.44249   1.000
    O574    O    0.47049   0.60368   0.44397   1.000
    O575    O    0.97063   0.60373   0.44416   1.000
    O576    O    0.33374   0.99207   0.44650   1.000
    O577    O    0.83378   0.99210   0.44650   1.000
    O578    O    0.58238   0.51134   0.44681   1.000
    O579    O    0.08247   0.51133   0.44722   1.000
    O580    O    0.72767   0.84955   0.45906   1.000
    O581    O    0.78157   0.88446   0.46287   1.000
    O582    O    0.22757   0.84956   0.45908   1.000
    O583    O    0.28149   0.88446   0.46287   1.000
    O584    O    0.48001   0.65848   0.46031   1.000
    O585    O    0.53304   0.62114   0.46389   1.000
    O586    O    0.98017   0.65851   0.46051   1.000
    O587    O    0.03318   0.62115   0.46410   1.000
    O588    O    0.38727   0.96986   0.46484   1.000
    O589    O    0.33881   0.92740   0.46496   1.000
    O590    O    0.88732   0.96990   0.46483   1.000
    O591    O    0.83888   0.92742   0.46495   1.000
    O592    O    0.13683   0.53119   0.46517   1.000
    O593    O    0.08942   0.57572   0.46572   1.000
    O594    O    0.63674   0.53123   0.46514   1.000
    O595    O    0.58931   0.57574   0.46570   1.000
    O596    O    0.84248   0.86154   0.48657   1.000
    O597    O    0.34239   0.86153   0.48658   1.000
    O598    O    0.59495   0.64110   0.48752   1.000
    O599    O    0.09507   0.64107   0.48760   1.000
    O600    O    0.35089   0.34385   0.48982   1.000
    O601    O    0.85087   0.34384   0.48982   1.000
    O602    O    0.60450   0.16405   0.49057   1.000
    O603    O    0.10452   0.16405   0.49061   1.000
    O604    O    0.90290   0.30105   0.49050   1.000
    O605    O    0.40290   0.30104   0.49086   1.000
    O606    O    0.15827   0.20360   0.49168   1.000
    O607    O    0.65825   0.20360   0.49166   1.000
    O608    O    0.90849   0.36246   0.51270   1.000
    O609    O    0.40850   0.36246   0.51270   1.000
    O610    O    0.66138   0.14219   0.51347   1.000
    O611    O    0.16140   0.14219   0.51350   1.000
    O612    O    0.84546   0.80006   0.50830   1.000
    O613    O    0.89930   0.83951   0.50951   1.000
    O614    O    0.34538   0.80005   0.50833   1.000
    O615    O    0.39921   0.83951   0.50953   1.000
    O616    O    0.60046   0.70262   0.50917   1.000
    O617    O    0.65232   0.65963   0.51070   1.000
    O618    O    0.10055   0.70259   0.50923   1.000
    O619    O    0.15240   0.65959   0.51083   1.000
    O620    O    0.79179   0.74434   0.54553   1.000
    O621    O    0.29182   0.74434   0.54563   1.000
    O622    O    0.54554   0.75925   0.54585   1.000
    O623    O    0.04179   0.75924   0.54586   1.000
    O624    O    0.96736   0.81494   0.54667   1.000
    O625    O    0.47111   0.81496   0.54668   1.000
    O626    O    0.72187   0.68509   0.54746   1.000
    O627    O    0.22196   0.68508   0.54762   1.000
    O628    O    0.41425   0.42780   0.53446   1.000
    O629    O    0.47053   0.38240   0.53609   1.000
    O630    O    0.91423   0.42782   0.53447   1.000
    O631    O    0.97051   0.38242   0.53610   1.000
    O632    O    0.66498   0.07640   0.53514   1.000
    O633    O    0.72231   0.11933   0.53719   1.000
    O634    O    0.16502   0.07639   0.53514   1.000
    O635    O    0.22235   0.11933   0.53718   1.000
    O636    O    0.86680   0.47232   0.53503   1.000
    O637    O    0.36682   0.47231   0.53503   1.000
    O638    O    0.61650   0.03396   0.53528   1.000
    O639    O    0.11655   0.03395   0.53529   1.000
    O640    O    0.52357   0.34507   0.53963   1.000
    O641    O    0.02355   0.34509   0.53965   1.000
    O642    O    0.27627   0.15423   0.54093   1.000
    O643    O    0.77623   0.15423   0.54095   1.000
    O644    O    0.92118   0.49225   0.55292   1.000
    O645    O    0.42120   0.49223   0.55292   1.000
    O646    O    0.67003   0.01175   0.55361   1.000
    O647    O    0.17008   0.01175   0.55361   1.000
    O648    O    0.53311   0.39988   0.55595   1.000
    O649    O    0.03308   0.39990   0.55596   1.000
    O650    O    0.28407   0.09927   0.55755   1.000
    O651    O    0.78403   0.09926   0.55756   1.000
    O652    O    0.92951   0.56057   0.57067   1.000
    O653    O    0.98453   0.50874   0.57139   1.000
    O654    O    0.42953   0.56054   0.57068   1.000
    O655    O    0.48456   0.50872   0.57144   1.000
    O656    O    0.67696   0.94290   0.57130   1.000
    O657    O    0.73254   0.99272   0.57273   1.000
    O658    O    0.17701   0.94291   0.57132   1.000
    O659    O    0.23260   0.99273   0.57273   1.000
    O660    O    0.04016   0.46179   0.57280   1.000
    O661    O    0.54019   0.46177   0.57284   1.000
    O662    O    0.28926   0.03731   0.57463   1.000
    O663    O    0.78920   0.03730   0.57463   1.000
    O664    O    0.87621   0.60685   0.57737   1.000
    O665    O    0.93976   0.62892   0.57856   1.000
    O666    O    0.37624   0.60681   0.57746   1.000
    O667    O    0.43978   0.62890   0.57853   1.000
    O668    O    0.62311   0.89757   0.57682   1.000
    O669    O    0.68659   0.87459   0.57979   1.000
    O670    O    0.12316   0.89758   0.57683   1.000
    O671    O    0.18663   0.87459   0.57981   1.000
    O672    O    0.54640   0.83771   0.57691   1.000
    O673    O    0.48653   0.71960   0.57881   1.000
    O674    O    0.44995   0.79758   0.59769   1.000
    O675    O    0.52796   0.77169   0.61736   1.000
    O676    O    0.04264   0.83771   0.57692   1.000
    O677    O    0.98273   0.71960   0.57885   1.000
    O678    O    0.94620   0.79762   0.59764   1.000
    O679    O    0.02417   0.77166   0.61741   1.000
    O680    O    0.79745   0.66637   0.57774   1.000
    O681    O    0.73435   0.78356   0.57997   1.000
    O682    O    0.69931   0.70554   0.59754   1.000
    O683    O    0.77765   0.73168   0.61725   1.000
    O684    O    0.29753   0.66635   0.57790   1.000
    O685    O    0.23443   0.78357   0.58007   1.000
    O686    O    0.19941   0.70556   0.59768   1.000
    O687    O    0.27769   0.73171   0.61745   1.000
    O688    O    0.04348   0.51918   0.58671   1.000
    O689    O    0.54352   0.51916   0.58674   1.000
    O690    O    0.79078   0.97996   0.58868   1.000
    O691    O    0.29084   0.97997   0.58869   1.000
    O692    O    0.62439   0.70106   0.63836   1.000
    O693    O    0.12448   0.70111   0.63848   1.000
    O694    O    0.87475   0.80168   0.63857   1.000
    O695    O    0.37465   0.80170   0.63872   1.000
    O696    O    0.82794   0.76690   0.65811   1.000
    O697    O    0.32786   0.76698   0.65831   1.000
    O698    O    0.57750   0.73603   0.65827   1.000
    O699    O    0.07757   0.73606   0.65837   1.000
    O700    O    0.62013   0.69375   0.68202   1.000
    O701    O    0.87055   0.80731   0.68245   1.000
    O702    O    0.12036   0.69394   0.68217   1.000
    O703    O    0.37036   0.80765   0.68260   1.000
    O704    O    0.70117   0.60069   0.68964   1.000
    O705    O    0.20153   0.60102   0.68970   1.000
    O706    O    0.45045   0.89969   0.69197   1.000
    O707    O    0.95049   0.89954   0.69220   1.000
    O708    O    0.66155   0.64450   0.70620   1.000
    O709    O    0.61899   0.69080   0.72789   1.000
    O710    O    0.16195   0.64484   0.70630   1.000
    O711    O    0.11944   0.69112   0.72807   1.000
    O712    O    0.91150   0.85503   0.70771   1.000
    O713    O    0.86969   0.80781   0.72832   1.000
    O714    O    0.41133   0.85552   0.70770   1.000
    O715    O    0.36933   0.80872   0.72854   1.000
    O716    O    0.70332   0.59624   0.72751   1.000
    O717    O    0.20399   0.59673   0.72756   1.000
    O718    O    0.45253   0.90243   0.72991   1.000
    O719    O    0.95256   0.90176   0.73015   1.000
    O720    O    0.70350   0.59466   0.76945   1.000
    O721    O    0.20445   0.59528   0.76954   1.000
    O722    O    0.83394   0.76768   0.75003   1.000
    O723    O    0.58266   0.72997   0.75049   1.000
    O724    O    0.61907   0.68907   0.77192   1.000
    O725    O    0.86976   0.80705   0.77242   1.000
    O726    O    0.08317   0.73027   0.75073   1.000
    O727    O    0.11979   0.68948   0.77208   1.000
    O728    O    0.33341   0.76900   0.75045   1.000
    O729    O    0.36933   0.80859   0.77262   1.000
    O730    O    0.45264   0.90223   0.77189   1.000
    O731    O    0.95268   0.90098   0.77216   1.000
    O732    O    0.66180   0.64119   0.79218   1.000
    O733    O    0.70172   0.59639   0.80743   1.000
    O734    O    0.16277   0.64175   0.79229   1.000
    O735    O    0.20293   0.59712   0.80753   1.000
    O736    O    0.41144   0.85518   0.79376   1.000
    O737    O    0.45081   0.89907   0.80981   1.000
    O738    O    0.91170   0.85348   0.79382   1.000
    O739    O    0.95085   0.89736   0.81007   1.000
    O740    O    0.62079   0.68852   0.81790   1.000
    O741    O    0.12173   0.68891   0.81809   1.000
    O742    O    0.87057   0.80514   0.81827   1.000
    O743    O    0.37040   0.80741   0.81860   1.000
    O744    O    0.82798   0.76401   0.84202   1.000
    O745    O    0.87453   0.79859   0.86210   1.000
    O746    O    0.77756   0.72895   0.88260   1.000
    O747    O    0.57862   0.72896   0.84312   1.000
    O748    O    0.62660   0.69272   0.86154   1.000
    O749    O    0.07971   0.72937   0.84344   1.000
    O750    O    0.12746   0.69277   0.86179   1.000
    O751    O    0.32797   0.76680   0.84294   1.000
    O752    O    0.37502   0.80160   0.86241   1.000
    O753    O    0.27756   0.73059   0.88368   1.000
    O754    O    0.52803   0.76704   0.88429   1.000
    O755    O    0.02529   0.76711   0.88457   1.000
    O756    O    0.70076   0.69945   0.90205   1.000
    O757    O    0.20116   0.69957   0.90260   1.000
    O758    O    0.94603   0.79469   0.90344   1.000
    O759    O    0.44982   0.79653   0.90339   1.000
    O760    O    0.78961   0.97732   0.91194   1.000
    O761    O    0.28912   0.97712   0.91233   1.000
    O762    O    0.54234   0.51601   0.91448   1.000
    O763    O    0.04257   0.51547   0.91460   1.000
    O764    O    0.68431   0.87173   0.91892   1.000
    O765    O    0.73283   0.78075   0.91922   1.000
    O766    O    0.18361   0.87172   0.92020   1.000
    O767    O    0.23248   0.78089   0.92038   1.000
    O768    O    0.48616   0.71723   0.92262   1.000
    O769    O    0.43968   0.62653   0.92289   1.000
    O770    O    0.98311   0.71680   0.92279   1.000
    O771    O    0.94014   0.62610   0.92300   1.000
    O772    O    0.78771   0.03455   0.92625   1.000
    O773    O    0.73113   0.98988   0.92745   1.000
    O774    O    0.79740   0.66435   0.92234   1.000
    O775    O    0.87634   0.60481   0.92330   1.000
    O776    O    0.62118   0.89550   0.92204   1.000
    O777    O    0.54493   0.83586   0.92301   1.000
    O778    O    0.29721   0.66462   0.92281   1.000
    O779    O    0.37594   0.60506   0.92331   1.000
    O780    O    0.28729   0.03450   0.92644   1.000
    O781    O    0.23070   0.98989   0.92791   1.000
    O782    O    0.67529   0.94016   0.92806   1.000
    O783    O    0.12053   0.89566   0.92320   1.000
    O784    O    0.04128   0.83578   0.92370   1.000
    O785    O    0.72333   0.68216   0.95312   1.000
    O786    O    0.79131   0.74254   0.95438   1.000
    O787    O    0.53844   0.45849   0.92806   1.000
    O788    O    0.48324   0.50590   0.92949   1.000
    O789    O    0.03858   0.45796   0.92815   1.000
    O790    O    0.98343   0.50543   0.92955   1.000
    O791    O    0.17477   0.94026   0.92890   1.000
    O792    O    0.22340   0.68243   0.95381   1.000
    O793    O    0.29299   0.74292   0.95472   1.000
    O794    O    0.54703   0.75681   0.95397   1.000
    O795    O    0.47196   0.81359   0.95490   1.000
    O796    O    0.04367   0.75656   0.95413   1.000
    O797    O    0.96776   0.81212   0.95505   1.000
    O798    O    0.42871   0.55819   0.93026   1.000
    O799    O    0.92899   0.55780   0.93030   1.000
    O800    O    0.78215   0.09641   0.94352   1.000
    O801    O    0.28183   0.09655   0.94349   1.000
    O802    O    0.53075   0.39650   0.94457   1.000
    O803    O    0.03080   0.39598   0.94466   1.000
    O804    O    0.66834   0.00869   0.94613   1.000
    O805    O    0.16800   0.00892   0.94662   1.000
    O806    O    0.41966   0.48977   0.94764   1.000
    O807    O    0.91981   0.48937   0.94767   1.000
    O808    O    0.27378   0.15158   0.96000   1.000
    O809    O    0.21989   0.11659   0.96345   1.000
    O810    O    0.77399   0.15129   0.96022   1.000
    O811    O    0.72009   0.11627   0.96345   1.000
    O812    O    0.52069   0.34162   0.96053   1.000
    O813    O    0.46797   0.37937   0.96410   1.000
    O814    O    0.02067   0.34113   0.96063   1.000
    O815    O    0.96798   0.37893   0.96417   1.000
    O816    O    0.61453   0.03063   0.96412   1.000
    O817    O    0.66286   0.07321   0.96486   1.000
    O818    O    0.11429   0.03105   0.96461   1.000
    O819    O    0.16265   0.07358   0.96512   1.000
    O820    O    0.36502   0.47014   0.96517   1.000
    O821    O    0.41208   0.42522   0.96574   1.000
    O822    O    0.86513   0.46981   0.96517   1.000
    O823    O    0.91215   0.42484   0.96577   1.000
    O824    O    0.65548   0.65662   0.98991   1.000
    O825    O    0.60394   0.69993   0.99010   1.000
    O826    O    0.15546   0.65667   0.99032   1.000
    O827    O    0.10384   0.69985   0.99032   1.000
    O828    O    0.40161   0.83875   0.99195   1.000
    O829    O    0.34785   0.79923   0.99201   1.000
    O830    O    0.89971   0.83692   0.99207   1.000
    O831    O    0.84517   0.79849   0.99216   1.000
    O832    O    0.57484   0.73671   0.59745   1.000
    O833    O    0.17922   0.23723   0.40237   1.000
    O834    O    0.67921   0.23722   0.40237   1.000
    O835    O    0.42761   0.26626   0.09720   1.000
    O836    O    0.92746   0.26607   0.09729   1.000
    O837    O    0.82411   0.76353   0.90268   1.000
    O838    O    0.42856   0.26822   0.40255   1.000
    O839    O    0.92855   0.26825   0.40257   1.000
    O840    O    0.32448   0.76642   0.59786   1.000
    O841    O    0.82446   0.76646   0.59772   1.000
    O842    O    0.17822   0.23630   0.09736   1.000
    O843    O    0.67831   0.23615   0.09732   1.000
loop_
    _geom_bond_atom_site_label_1
    _geom_bond_atom_site_label_2
    _geom_bond_distance
    _geom_bond_site_symmetry_2
    _ccdc_geom_bond_type
    C239   O376      0.64111      .   S
    C369   O376      0.64111      .   S
    C239   O377      0.63541      .   S
    C371   O377      0.63541      .   S
    C239   O378      0.74571  1_554   S
    C235   O378      0.74571      .   S
    C238   O379      0.64058      .   S
    C368   O379      0.64058      .   S
    C238   O380      0.63561      .   S
    C370   O380      0.63561      .   S
    C238   O381      0.74518  1_554   S
    C234   O381      0.74518      .   S
    C138   O382      0.64252      .   S
    C308   O382      0.64252      .   S
    C138   O383      0.63495      .   S
    C310   O383      0.63495      .   S
    C138   O384      0.74512  1_554   S
    C134   O384      0.74512      .   S
    C139   O385      0.64267      .   S
    C309   O385      0.64267      .   S
    C139   O386      0.63492      .   S
    C311   O386      0.63492      .   S
    C139   O387      0.74497  1_554   S
    C135   O387      0.74497      .   S
    C368   O388      1.11590      .   S
    C14    O388      1.11590      .   S
    C369   O389      1.11538      .   S
    C15    O389      1.11538      .   S
    C308   O390      1.12048      .   S
    C5     O390      1.12048      .   S
    C309   O391      1.12048      .   S
    C4     O391      1.12048      .   S
    C371   O392      1.15102      .   S
    C5     O392      1.15102      .   S
    C370   O393      1.14976      .   S
    C4     O393      1.14976  1_655   S
    C310   O394      1.15385      .   S
    C14    O394      1.15385      .   S
    C311   O395      1.15409      .   S
    C15    O395      1.15409      .   S
    C215   O396      0.69887      .   S
    C213   O396      0.69887      .   S
    C215   O397      0.70178      .   S
    C216   O397      0.70178      .   S
    C215   O398      0.74455      .   S
    C219   O398      0.74455  1_556   S
    C214   O399      0.69885      .   S
    C212   O399      0.69885      .   S
    C214   O400      0.70178      .   S
    C217   O400      0.70178  1_655   S
    C214   O401      0.74421      .   S
    C218   O401      0.74421  1_556   S
    C67    O402      0.54437      .   S
    C213   O402      0.54437      .   S
    C66    O403      0.54435      .   S
    C212   O403      0.54435      .   S
    C155   O404      0.69926      .   S
    C153   O404      0.69926      .   S
    C155   O405      0.70248      .   S
    C157   O405      0.70248      .   S
    C155   O406      0.74465      .   S
    C159   O406      0.74465  1_556   S
    C154   O407      0.68489      .   S
    C156   O407      0.68489      .   S
    C154   O408      0.69919      .   S
    C152   O408      0.69919      .   S
    C154   O409      0.74496      .   S
    C158   O409      0.74496  1_556   S
    C42    O410      0.54441      .   S
    C152   O410      0.54441      .   S
    C43    O411      0.54443      .   S
    C153   O411      0.54443      .   S
    C68    O412      0.54557      .   S
    C216   O412      0.54557      .   S
    C69    O413      0.54560      .   S
    C217   O413      0.54560      .   S
    C44    O414      0.53526      .   S
    C156   O414      0.53526      .   S
    C45    O415      0.54555      .   S
    C157   O415      0.54555      .   S
    C156   O416      0.70762      .   S
    C262   O416      0.70762      .   S
    C213   O417      0.69759      .   S
    C211   O417      0.69759      .   S
    C212   O418      0.69750      .   S
    C210   O418      0.69750      .   S
    C153   O419      0.69819      .   S
    C151   O419      0.69819  1_545   S
    C152   O420      0.69737      .   S
    C150   O420      0.69737  1_545   S
    C216   O421      0.67142      .   S
    C268   O421      0.67142      .   S
    C217   O422      0.67138      .   S
    C269   O422      0.67138      .   S
    C157   O423      0.67121      .   S
    C263   O423      0.67121      .   S
    C211   O424      0.74527      .   S
    C221   O424      0.74527      .   S
    C211   O425      0.70192      .   S
    C208   O425      0.70192      .   S
    C210   O426      0.74526      .   S
    C220   O426      0.74526      .   S
    C210   O427      0.70206      .   S
    C209   O427      0.70206  1_655   S
    C150   O428      0.74573      .   S
    C160   O428      0.74573      .   S
    C150   O429      0.70259      .   S
    C148   O429      0.70259  1_565   S
    C151   O430      0.74543      .   S
    C161   O430      0.74543      .   S
    C151   O431      0.70235      .   S
    C149   O431      0.70235      .   S
    C268   O432      0.67092      .   S
    C208   O432      0.67092      .   S
    C269   O433      0.67115      .   S
    C209   O433      0.67115      .   S
    C262   O434      0.67093      .   S
    C148   O434      0.67093      .   S
    C263   O435      0.67031      .   S
    C149   O435      0.67031  1_545   S
    C221   O436      0.63678      .   S
    C363   O436      0.63678      .   S
    C221   O437      0.63693      .   S
    C361   O437      0.63693      .   S
    C220   O438      0.63687      .   S
    C362   O438      0.63687      .   S
    C220   O439      0.63682      .   S
    C360   O439      0.63682      .   S
    C5     O440      1.13107      .   S
    C326   O440      1.13107      .   S
    C5     O441      1.12424      .   S
    C361   O441      1.12424      .   S
    C5     O442      1.14453      .   S
    C367   O442      1.14453      .   S
    C5     O443      1.17326      .   S
    C304   O443      1.17326      .   S
    C4     O444      1.13463      .   S
    C327   O444      1.13463      .   S
    C4     O445      1.12535  1_655   S
    C360   O445      1.12535      .   S
    C4     O446      1.14430  1_655   S
    C366   O446      1.14430      .   S
    C4     O447      1.17297      .   S
    C305   O447      1.17297      .   S
    C15    O448      1.12869      .   S
    C363   O448      1.12869      .   S
    C15    O449      1.12196      .   S
    C325   O449      1.12196      .   S
    C15    O450      1.14288      .   S
    C307   O450      1.14288      .   S
    C15    O451      1.17377      .   S
    C365   O451      1.17377      .   S
    C14    O452      1.12771      .   S
    C362   O452      1.12771      .   S
    C14    O453      1.12151      .   S
    C324   O453      1.12151      .   S
    C14    O454      1.14232      .   S
    C306   O454      1.14232      .   S
    C14    O455      1.17393      .   S
    C364   O455      1.17393      .   S
    C208   O456      0.54647      .   S
    C64    O456      0.54647      .   S
    C209   O457      0.54609      .   S
    C65    O457      0.54609      .   S
    C161   O458      0.63696      .   S
    C327   O458      0.63696      .   S
    C161   O459      0.63720      .   S
    C325   O459      0.63720      .   S
    C160   O460      0.63687      .   S
    C326   O460      0.63687      .   S
    C160   O461      0.63667      .   S
    C324   O461      0.63667      .   S
    C148   O462      0.54605  1_565   S
    C40    O462      0.54605      .   S
    C149   O463      0.54655      .   S
    C41    O463      0.54655      .   S
    C367   O464      0.64594      .   S
    C247   O464      0.64594      .   S
    C366   O465      0.64577      .   S
    C246   O465      0.64577      .   S
    C306   O466      0.64495      .   S
    C146   O466      0.64495      .   S
    C307   O467      0.64485      .   S
    C147   O467      0.64485      .   S
    C304   O468      0.63444      .   S
    C146   O468      0.63444      .   S
    C305   O469      0.63453      .   S
    C147   O469      0.63453      .   S
    C364   O470      0.63418      .   S
    C246   O470      0.63418      .   S
    C365   O471      0.63418      .   S
    C247   O471      0.63418      .   S
    C146   O472      0.74310      .   S
    C144   O472      0.74310      .   S
    C147   O473      0.74301      .   S
    C145   O473      0.74301      .   S
    C247   O474      0.74309      .   S
    C245   O474      0.74309      .   S
    C246   O475      0.74319      .   S
    C244   O475      0.74319      .   S
    C38    O476      0.54571      .   S
    C142   O476      0.54571      .   S
    C39    O477      0.54571      .   S
    C143   O477      0.54571      .   S
    C79    O478      0.54575      .   S
    C243   O478      0.54575      .   S
    C78    O479      0.54578      .   S
    C242   O479      0.54578      .   S
    C144   O480      0.70195      .   S
    C142   O480      0.70195      .   S
    C144   O481      0.69845      .   S
    C252   O481      0.69845      .   S
    C145   O482      0.70194      .   S
    C143   O482      0.70194      .   S
    C145   O483      0.69836      .   S
    C253   O483      0.69836      .   S
    C245   O484      0.70187      .   S
    C243   O484      0.70187      .   S
    C245   O485      0.69842      .   S
    C251   O485      0.69842      .   S
    C244   O486      0.70187      .   S
    C242   O486      0.70187      .   S
    C244   O487      0.69848      .   S
    C250   O487      0.69848      .   S
    C142   O488      0.67083      .   S
    C276   O488      0.67083      .   S
    C143   O489      0.67091      .   S
    C277   O489      0.67091      .   S
    C243   O490      0.67093      .   S
    C275   O490      0.67093      .   S
    C242   O491      0.67091      .   S
    C274   O491      0.67091      .   S
    C276   O492      0.67086      .   S
    C182   O492      0.67086      .   S
    C277   O493      0.67089      .   S
    C183   O493      0.67089      .   S
    C275   O494      0.67096      .   S
    C123   O494      0.67096      .   S
    C274   O495      0.67101      .   S
    C122   O495      0.67101      .   S
    C252   O496      0.54421      .   S
    C84    O496      0.54421      .   S
    C252   O497      0.69825      .   S
    C184   O497      0.69825      .   S
    C253   O498      0.54420      .   S
    C85    O498      0.54420      .   S
    C253   O499      0.69832      .   S
    C185   O499      0.69832      .   S
    C251   O500      0.54419      .   S
    C83    O500      0.54419      .   S
    C251   O501      0.69838      .   S
    C125   O501      0.69838      .   S
    C250   O502      0.54419      .   S
    C82    O502      0.54419      .   S
    C250   O503      0.69824      .   S
    C124   O503      0.69824      .   S
    C182   O504      0.70208      .   S
    C184   O504      0.70208      .   S
    C182   O505      0.54571      .   S
    C54    O505      0.54571      .   S
    C183   O506      0.70210      .   S
    C185   O506      0.70210      .   S
    C183   O507      0.54111      .   S
    C55    O507      0.54111      .   S
    C123   O508      0.70202      .   S
    C125   O508      0.70202      .   S
    C123   O509      0.54577      .   S
    C31    O509      0.54577      .   S
    C122   O510      0.70201      .   S
    C124   O510      0.70201      .   S
    C122   O511      0.54571      .   S
    C30    O511      0.54571      .   S
    C184   O512      0.74326      .   S
    C186   O512      0.74326      .   S
    C185   O513      0.74321      .   S
    C187   O513      0.74321      .   S
    C125   O514      0.74363      .   S
    C127   O514      0.74363      .   S
    C124   O515      0.74365      .   S
    C126   O515      0.74365      .   S
    C127   O516      0.63436      .   S
    C293   O516      0.63436      .   S
    C127   O517      0.64516      .   S
    C295   O517      0.64516      .   S
    C126   O518      0.63436      .   S
    C292   O518      0.63436      .   S
    C126   O519      0.64517      .   S
    C294   O519      0.64517      .   S
    C186   O520      0.63447      .   S
    C328   O520      0.63447      .   S
    C186   O521      0.64507      .   S
    C330   O521      0.64507      .   S
    C187   O522      0.63447      .   S
    C329   O522      0.63447      .   S
    C187   O523      0.64504      .   S
    C331   O523      0.64504      .   S
    C293   O524      1.17471      .   S
    C3     O524      1.17471      .   S
    C292   O525      1.17435      .   S
    C2     O525      1.17435      .   S
    C328   O526      1.17263      .   S
    C9     O526      1.17263      .   S
    C329   O527      1.17261      .   S
    C8     O527      1.17261      .   S
    C330   O528      1.13924      .   S
    C2     O528      1.13924      .   S
    C331   O529      1.13914      .   S
    C3     O529      1.13914      .   S
    C295   O530      1.14166      .   S
    C9     O530      1.14166      .   S
    C294   O531      1.14160      .   S
    C8     O531      1.14160  1_655   S
    C56    O532      0.55584      .   S
    C188   O532      0.55584      .   S
    C57    O533      0.55589      .   S
    C189   O533      0.55589      .   S
    C16    O534      0.54607      .   S
    C88    O534      0.54607      .   S
    C17    O535      0.54614      .   S
    C89    O535      0.54614      .   S
    C349   O536      1.12543      .   S
    C3     O536      1.12543      .   S
    C349   O537      0.63879      .   S
    C201   O537      0.63879      .   S
    C348   O538      1.12452      .   S
    C2     O538      1.12452      .   S
    C348   O539      0.63713      .   S
    C200   O539      0.63713      .   S
    C289   O540      1.12372      .   S
    C9     O540      1.12372      .   S
    C289   O541      0.63707      .   S
    C101   O541      0.63707      .   S
    C288   O542      1.12375      .   S
    C8     O542      1.12375  1_655   S
    C288   O543      0.63709      .   S
    C100   O543      0.63709      .   S
    C188   O544      0.65800  1_545   S
    C266   O544      0.65800      .   S
    C188   O545      0.70588      .   S
    C190   O545      0.70588      .   S
    C189   O546      0.65816  1_545   S
    C267   O546      0.65816      .   S
    C189   O547      0.70587      .   S
    C191   O547      0.70587      .   S
    C291   O548      1.12982      .   S
    C3     O548      1.12982      .   S
    C291   O549      0.63678      .   S
    C101   O549      0.63678      .   S
    C290   O550      1.12974      .   S
    C2     O550      1.12974      .   S
    C290   O551      0.63680      .   S
    C100   O551      0.63680      .   S
    C88    O552      0.67111      .   S
    C256   O552      0.67111      .   S
    C88    O553      0.69963      .   S
    C91    O553      0.69963      .   S
    C89    O554      0.67108      .   S
    C257   O554      0.67108      .   S
    C89    O555      0.70203  1_655   S
    C90    O555      0.70203      .   S
    C351   O556      0.63708      .   S
    C201   O556      0.63708      .   S
    C351   O557      1.13298      .   S
    C8     O557      1.13298      .   S
    C350   O558      0.63708      .   S
    C200   O558      0.63708      .   S
    C350   O559      1.13299      .   S
    C9     O559      1.13299      .   S
    C2     O560      1.15404      .   S
    C334   O560      1.15404      .   S
    C2     O561      1.11449      .   S
    C296   O561      1.11449      .   S
    C3     O562      1.15398      .   S
    C335   O562      1.15398      .   S
    C3     O563      1.11438      .   S
    C297   O563      1.11438      .   S
    C200   O564      0.74580      .   S
    C190   O564      0.74580      .   S
    C201   O565      0.74578      .   S
    C191   O565      0.74578      .   S
    C9     O566      1.14602      .   S
    C299   O566      1.14602      .   S
    C9     O567      1.11852      .   S
    C332   O567      1.11852      .   S
    C8     O568      1.14605  1_655   S
    C298   O568      1.14605      .   S
    C8     O569      1.11124      .   S
    C333   O569      1.11124      .   S
    C101   O570      0.74317      .   S
    C91    O570      0.74317      .   S
    C100   O571      0.74522      .   S
    C90    O571      0.74522      .   S
    C266   O572      0.67179      .   S
    C196   O572      0.67179      .   S
    C267   O573      0.67131      .   S
    C197   O573      0.67131      .   S
    C256   O574      0.66939      .   S
    C96    O574      0.66939      .   S
    C257   O575      0.67140      .   S
    C97    O575      0.67140      .   S
    C190   O576      0.69814  1_545   S
    C192   O576      0.69814      .   S
    C191   O577      0.69814  1_545   S
    C193   O577      0.69814      .   S
    C91    O578      0.70308      .   S
    C93    O578      0.70308      .   S
    C90    O579      0.69732      .   S
    C92    O579      0.69732      .   S
    C197   O580      0.54558      .   S
    C61    O580      0.54558      .   S
    C197   O581      0.70206      .   S
    C195   O581      0.70206      .   S
    C196   O582      0.54564      .   S
    C60    O582      0.54564      .   S
    C196   O583      0.70211      .   S
    C194   O583      0.70211      .   S
    C96    O584      0.54643      .   S
    C20    O584      0.54643      .   S
    C96    O585      0.70322      .   S
    C95    O585      0.70322      .   S
    C97    O586      0.54556      .   S
    C21    O586      0.54556      .   S
    C97    O587      0.70194  1_655   S
    C94    O587      0.70194      .   S
    C192   O588      0.54445      .   S
    C58    O588      0.54445      .   S
    C192   O589      0.69933      .   S
    C194   O589      0.69933      .   S
    C193   O590      0.54443      .   S
    C59    O590      0.54443      .   S
    C193   O591      0.69930      .   S
    C195   O591      0.69930      .   S
    C92    O592      0.54467      .   S
    C18    O592      0.54467      .   S
    C92    O593      0.69908      .   S
    C94    O593      0.69908      .   S
    C93    O594      0.54436      .   S
    C19    O594      0.54436      .   S
    C93    O595      0.69885      .   S
    C95    O595      0.69885      .   S
    C195   O596      0.74530      .   S
    C199   O596      0.74530      .   S
    C194   O597      0.74527      .   S
    C198   O597      0.74527      .   S
    C95    O598      0.74482      .   S
    C99    O598      0.74482      .   S
    C94    O599      0.74492      .   S
    C98    O599      0.74492      .   S
    C334   O600      0.63478      .   S
    C178   O600      0.63478      .   S
    C335   O601      0.63470      .   S
    C179   O601      0.63470      .   S
    C299   O602      0.63516      .   S
    C119   O602      0.63516      .   S
    C298   O603      0.63534      .   S
    C118   O603      0.63534      .   S
    C333   O604      0.64527      .   S
    C179   O604      0.64527      .   S
    C332   O605      0.64277      .   S
    C178   O605      0.64277      .   S
    C296   O606      0.64093      .   S
    C118   O606      0.64093      .   S
    C297   O607      0.64077      .   S
    C119   O607      0.64077      .   S
    C179   O608      0.74485      .   S
    C175   O608      0.74485      .   S
    C178   O609      0.74466      .   S
    C174   O609      0.74466      .   S
    C119   O610      0.74536      .   S
    C115   O610      0.74536      .   S
    C118   O611      0.74496      .   S
    C114   O611      0.74496      .   S
    C199   O612      0.64111      .   S
    C345   O612      0.64111      .   S
    C199   O613      0.63520      .   S
    C347   O613      0.63520      .   S
    C198   O614      0.64112      .   S
    C344   O614      0.64112      .   S
    C198   O615      0.63525      .   S
    C346   O615      0.63525      .   S
    C99    O616      0.64231      .   S
    C285   O616      0.64231      .   S
    C99    O617      0.63506      .   S
    C287   O617      0.63506      .   S
    C98    O618      0.64222      .   S
    C284   O618      0.64222      .   S
    C98    O619      0.63499      .   S
    C286   O619      0.63499      .   S
    C345   O620      1.11352      .   S
    C11    O620      1.11352      .   S
    C344   O621      1.11385      .   S
    C10    O621      1.11385      .   S
    C285   O622      1.12061      .   S
    C0     O622      1.12061      .   S
    C284   O623      1.15761      .   S
    C1     O623      1.15761      .   S
    C347   O624      1.11672      .   S
    C1     O624      1.11672  1_455   S
    C346   O625      1.14845      .   S
    C0     O625      1.14845      .   S
    C287   O626      1.15264      .   S
    C11    O626      1.15264      .   S
    C286   O627      1.15314      .   S
    C10    O627      1.15314      .   S
    C174   O628      0.69889      .   S
    C172   O628      0.69889      .   S
    C174   O629      0.70188      .   S
    C177   O629      0.70188      .   S
    C175   O630      0.69889      .   S
    C173   O630      0.69889      .   S
    C175   O631      0.70186      .   S
    C176   O631      0.70186  1_455   S
    C115   O632      0.69928      .   S
    C113   O632      0.69928      .   S
    C115   O633      0.70196      .   S
    C117   O633      0.70196      .   S
    C114   O634      0.69932      .   S
    C112   O634      0.69932      .   S
    C114   O635      0.70195      .   S
    C116   O635      0.70195      .   S
    C51    O636      0.54437      .   S
    C173   O636      0.54437      .   S
    C50    O637      0.54437      .   S
    C172   O637      0.54437      .   S
    C27    O638      0.54441      .   S
    C113   O638      0.54441      .   S
    C26    O639      0.54443      .   S
    C112   O639      0.54443      .   S
    C53    O640      0.54558      .   S
    C177   O640      0.54558      .   S
    C52    O641      0.54560      .   S
    C176   O641      0.54560      .   S
    C28    O642      0.54559      .   S
    C116   O642      0.54559      .   S
    C29    O643      0.54560      .   S
    C117   O643      0.54560      .   S
    C173   O644      0.69770      .   S
    C171   O644      0.69770      .   S
    C172   O645      0.69772      .   S
    C170   O645      0.69772      .   S
    C113   O646      0.69796      .   S
    C111   O646      0.69796  1_565   S
    C112   O647      0.69794      .   S
    C110   O647      0.69794  1_565   S
    C177   O648      0.67139      .   S
    C265   O648      0.67139      .   S
    C176   O649      0.67118      .   S
    C264   O649      0.67118      .   S
    C116   O650      0.67132      .   S
    C258   O650      0.67132      .   S
    C117   O651      0.67126      .   S
    C259   O651      0.67126      .   S
    C171   O652      0.74533      .   S
    C181   O652      0.74533      .   S
    C171   O653      0.70180      .   S
    C168   O653      0.70180  1_455   S
    C170   O654      0.74530      .   S
    C180   O654      0.74530      .   S
    C170   O655      0.70210      .   S
    C169   O655      0.70210      .   S
    C111   O656      0.74568      .   S
    C121   O656      0.74568      .   S
    C111   O657      0.70243      .   S
    C109   O657      0.70243  1_545   S
    C110   O658      0.74568      .   S
    C120   O658      0.74568      .   S
    C110   O659      0.70243      .   S
    C108   O659      0.70243  1_545   S
    C264   O660      0.67093      .   S
    C168   O660      0.67093      .   S
    C265   O661      0.67106      .   S
    C169   O661      0.67106      .   S
    C258   O662      0.67084      .   S
    C108   O662      0.67084      .   S
    C259   O663      0.67085      .   S
    C109   O663      0.67085      .   S
    C181   O664      0.63661      .   S
    C339   O664      0.63661      .   S
    C181   O665      0.63710      .   S
    C337   O665      0.63710      .   S
    C180   O666      0.63668      .   S
    C338   O666      0.63668      .   S
    C180   O667      0.63701      .   S
    C336   O667      0.63701      .   S
    C121   O668      0.63709      .   S
    C303   O668      0.63709      .   S
    C121   O669      0.63683      .   S
    C301   O669      0.63683      .   S
    C120   O670      0.63707      .   S
    C302   O670      0.63707      .   S
    C120   O671      0.63683      .   S
    C300   O671      0.63683      .   S
    C0     O672      1.13290      .   S
    C303   O672      1.13290      .   S
    C0     O673      1.12381      .   S
    C336   O673      1.12381      .   S
    C0     O674      1.14474      .   S
    C342   O674      1.14474      .   S
    C0     O675      1.17508      .   S
    C281   O675      1.17508      .   S
    C1     O676      1.17102      .   S
    C302   O676      1.17102      .   S
    C1     O677      1.10498  1_455   S
    C337   O677      1.10498      .   S
    C1     O678      1.09107  1_455   S
    C343   O678      1.09107      .   S
    C1     O679      1.19552      .   S
    C280   O679      1.19552      .   S
    C11    O680      1.13064      .   S
    C339   O680      1.13064      .   S
    C11    O681      1.12362      .   S
    C301   O681      1.12362      .   S
    C11    O682      1.13945      .   S
    C283   O682      1.13945      .   S
    C11    O683      1.17264      .   S
    C341   O683      1.17264      .   S
    C10    O684      1.13066      .   S
    C338   O684      1.13066      .   S
    C10    O685      1.12356      .   S
    C300   O685      1.12356      .   S
    C10    O686      1.13951      .   S
    C282   O686      1.13951      .   S
    C10    O687      1.17329      .   S
    C340   O687      1.17329      .   S
    C168   O688      0.54662      .   S
    C48    O688      0.54662      .   S
    C169   O689      0.54608      .   S
    C49    O689      0.54608      .   S
    C109   O690      0.54605  1_545   S
    C25    O690      0.54605      .   S
    C108   O691      0.54606  1_545   S
    C24    O691      0.54606      .   S
    C283   O692      0.64524      .   S
    C107   O692      0.64524      .   S
    C282   O693      0.64526      .   S
    C106   O693      0.64526      .   S
    C343   O694      0.64524      .   S
    C207   O694      0.64524      .   S
    C342   O695      0.64553      .   S
    C206   O695      0.64553      .   S
    C341   O696      0.63443      .   S
    C207   O696      0.63443      .   S
    C340   O697      0.63444      .   S
    C206   O697      0.63444      .   S
    C281   O698      0.63419      .   S
    C107   O698      0.63419      .   S
    C280   O699      0.63416      .   S
    C106   O699      0.63416      .   S
    C107   O700      0.74249      .   S
    C105   O700      0.74249      .   S
    C207   O701      0.74365      .   S
    C205   O701      0.74365      .   S
    C106   O702      0.74274      .   S
    C104   O702      0.74274      .   S
    C206   O703      0.74393      .   S
    C204   O703      0.74393      .   S
    C23    O704      0.54572      .   S
    C103   O704      0.54572      .   S
    C22    O705      0.54481      .   S
    C102   O705      0.54481      .   S
    C62    O706      0.54567      .   S
    C202   O706      0.54567      .   S
    C63    O707      0.54519      .   S
    C203   O707      0.54519      .   S
    C105   O708      0.70197      .   S
    C103   O708      0.70197      .   S
    C105   O709      0.69856      .   S
    C249   O709      0.69856      .   S
    C104   O710      0.70201      .   S
    C102   O710      0.70201      .   S
    C104   O711      0.69868      .   S
    C248   O711      0.69868      .   S
    C205   O712      0.70192      .   S
    C203   O712      0.70192      .   S
    C205   O713      0.69831      .   S
    C255   O713      0.69831      .   S
    C204   O714      0.70196      .   S
    C202   O714      0.70196      .   S
    C204   O715      0.69883      .   S
    C254   O715      0.69883      .   S
    C103   O716      0.67071      .   S
    C273   O716      0.67071      .   S
    C102   O717      0.67153      .   S
    C272   O717      0.67153      .   S
    C202   O718      0.67091      .   S
    C278   O718      0.67091      .   S
    C203   O719      0.67144      .   S
    C279   O719      0.67144      .   S
    C273   O720      0.67079      .   S
    C223   O720      0.67079      .   S
    C272   O721      0.67086      .   S
    C222   O721      0.67086      .   S
    C87    O722      0.54421      .   S
    C255   O722      0.54421      .   S
    C249   O723      0.54425      .   S
    C81    O723      0.54425      .   S
    C249   O724      0.69810      .   S
    C225   O724      0.69810      .   S
    C255   O725      0.69861      .   S
    C165   O725      0.69861      .   S
    C248   O726      0.54427      .   S
    C80    O726      0.54427      .   S
    C248   O727      0.69728      .   S
    C224   O727      0.69728      .   S
    C86    O728      0.54427      .   S
    C254   O728      0.54427      .   S
    C254   O729      0.69807      .   S
    C164   O729      0.69807      .   S
    C278   O730      0.67085      .   S
    C162   O730      0.67085      .   S
    C279   O731      0.67098      .   S
    C163   O731      0.67098      .   S
    C223   O732      0.70223      .   S
    C225   O732      0.70223      .   S
    C223   O733      0.54560      .   S
    C71    O733      0.54560      .   S
    C222   O734      0.70216      .   S
    C224   O734      0.70216      .   S
    C222   O735      0.54565      .   S
    C70    O735      0.54565      .   S
    C162   O736      0.70210      .   S
    C164   O736      0.70210      .   S
    C162   O737      0.54571      .   S
    C46    O737      0.54571      .   S
    C163   O738      0.70195      .   S
    C165   O738      0.70195      .   S
    C163   O739      0.54578      .   S
    C47    O739      0.54578      .   S
    C225   O740      0.74362      .   S
    C227   O740      0.74362      .   S
    C224   O741      0.74483      .   S
    C226   O741      0.74483      .   S
    C165   O742      0.74325      .   S
    C167   O742      0.74325      .   S
    C164   O743      0.74460      .   S
    C166   O743      0.74460      .   S
    C167   O744      0.63361      .   S
    C317   O744      0.63361      .   S
    C167   O745      0.64643      .   S
    C319   O745      0.64643      .   S
    C317   O746      1.17675      .   S
    C7     O746      1.17675      .   S
    C227   O747      0.63460      .   S
    C353   O747      0.63460      .   S
    C227   O748      0.64429      .   S
    C355   O748      0.64429      .   S
    C226   O749      0.63471      .   S
    C352   O749      0.63471      .   S
    C226   O750      0.64400      .   S
    C354   O750      0.64400      .   S
    C166   O751      0.63364      .   S
    C316   O751      0.63364      .   S
    C166   O752      0.64575      .   S
    C318   O752      0.64575      .   S
    C316   O753      1.17468      .   S
    C6     O753      1.17468      .   S
    C353   O754      1.17380      .   S
    C12    O754      1.17380      .   S
    C352   O755      1.19146      .   S
    C13    O755      1.19146      .   S
    C355   O756      1.13144      .   S
    C7     O756      1.13144      .   S
    C354   O757      1.13282      .   S
    C6     O757      1.13282      .   S
    C319   O758      1.09212      .   S
    C13    O758      1.09212  1_455   S
    C318   O759      1.13512      .   S
    C12    O759      1.13512      .   S
    C73    O760      0.54615      .   S
    C229   O760      0.54615      .   S
    C72    O761      0.54659      .   S
    C228   O761      0.54659      .   S
    C33    O762      0.54641      .   S
    C129   O762      0.54641      .   S
    C32    O763      0.54612      .   S
    C128   O763      0.54612      .   S
    C373   O764      0.63712      .   S
    C241   O764      0.63712      .   S
    C373   O765      1.12640      .   S
    C7     O765      1.12640      .   S
    C372   O766      0.63705      .   S
    C240   O766      0.63705      .   S
    C372   O767      1.12387      .   S
    C6     O767      1.12387      .   S
    C312   O768      1.12391      .   S
    C12    O768      1.12391      .   S
    C312   O769      0.63683      .   S
    C140   O769      0.63683      .   S
    C313   O770      1.10749      .   S
    C13    O770      1.10749  1_455   S
    C313   O771      0.63693      .   S
    C141   O771      0.63693      .   S
    C229   O772      0.67091  1_565   S
    C271   O772      0.67091      .   S
    C229   O773      0.70208      .   S
    C231   O773      0.70208      .   S
    C315   O774      1.12740      .   S
    C7     O774      1.12740      .   S
    C315   O775      0.63629      .   S
    C141   O775      0.63629      .   S
    C375   O776      0.63721      .   S
    C241   O776      0.63721      .   S
    C375   O777      1.13233      .   S
    C12    O777      1.13233      .   S
    C314   O778      1.12695      .   S
    C6     O778      1.12695      .   S
    C314   O779      0.63650      .   S
    C140   O779      0.63650      .   S
    C228   O780      0.67102  1_565   S
    C270   O780      0.67102      .   S
    C228   O781      0.70212      .   S
    C230   O781      0.70212      .   S
    C241   O782      0.74563      .   S
    C231   O782      0.74563      .   S
    C374   O783      0.63718      .   S
    C240   O783      0.63718      .   S
    C374   O784      1.16528      .   S
    C13    O784      1.16528      .   S
    C7     O785      1.15769      .   S
    C359   O785      1.15769      .   S
    C7     O786      1.11384      .   S
    C321   O786      1.11384      .   S
    C129   O787      0.67113      .   S
    C261   O787      0.67113      .   S
    C129   O788      0.70210      .   S
    C130   O788      0.70210      .   S
    C128   O789      0.67112      .   S
    C260   O789      0.67112      .   S
    C128   O790      0.70212  1_455   S
    C131   O790      0.70212      .   S
    C240   O791      0.74502      .   S
    C230   O791      0.74502      .   S
    C6     O792      1.15541      .   S
    C358   O792      1.15541      .   S
    C6     O793      1.11705      .   S
    C320   O793      1.11705      .   S
    C12    O794      1.11872      .   S
    C357   O794      1.11872      .   S
    C12    O795      1.15051      .   S
    C322   O795      1.15051      .   S
    C13    O796      1.15103      .   S
    C356   O796      1.15103      .   S
    C13    O797      1.12130  1_455   S
    C323   O797      1.12130      .   S
    C140   O798      0.74539      .   S
    C130   O798      0.74539      .   S
    C141   O799      0.74543      .   S
    C131   O799      0.74543      .   S
    C271   O800      0.67150      .   S
    C237   O800      0.67150      .   S
    C270   O801      0.67132      .   S
    C236   O801      0.67132      .   S
    C261   O802      0.67126      .   S
    C137   O802      0.67126      .   S
    C260   O803      0.67126      .   S
    C136   O803      0.67126      .   S
    C231   O804      0.69836  1_565   S
    C233   O804      0.69836      .   S
    C230   O805      0.69801  1_565   S
    C232   O805      0.69801      .   S
    C130   O806      0.69794      .   S
    C132   O806      0.69794      .   S
    C131   O807      0.69787      .   S
    C133   O807      0.69787      .   S
    C236   O808      0.54559      .   S
    C76    O808      0.54559      .   S
    C236   O809      0.70220      .   S
    C234   O809      0.70220      .   S
    C237   O810      0.54557      .   S
    C77    O810      0.54557      .   S
    C237   O811      0.70226      .   S
    C235   O811      0.70226      .   S
    C137   O812      0.54559      .   S
    C37    O812      0.54559      .   S
    C137   O813      0.70200      .   S
    C134   O813      0.70200      .   S
    C136   O814      0.54556      .   S
    C36    O814      0.54556      .   S
    C136   O815      0.70196  1_455   S
    C135   O815      0.70196      .   S
    C233   O816      0.54443      .   S
    C75    O816      0.54443      .   S
    C233   O817      0.69907      .   S
    C235   O817      0.69907      .   S
    C232   O818      0.54436      .   S
    C74    O818      0.54436      .   S
    C232   O819      0.69873      .   S
    C234   O819      0.69873      .   S
    C132   O820      0.54444      .   S
    C34    O820      0.54444      .   S
    C132   O821      0.69895      .   S
    C134   O821      0.69895      .   S
    C133   O822      0.54444      .   S
    C35    O822      0.54444      .   S
    C133   O823      0.69905      .   S
    C135   O823      0.69905      .   S
    C359   O824      0.63422      .   S
    C219   O824      0.63422      .   S
    C357   O825      0.64331      .   S
    C219   O825      0.64331      .   S
    C358   O826      0.63449      .   S
    C218   O826      0.63449      .   S
    C356   O827      0.64318      .   S
    C218   O827      0.64318      .   S
    C322   O828      0.63560      .   S
    C158   O828      0.63560      .   S
    C320   O829      0.64097      .   S
    C158   O829      0.64097      .   S
    C323   O830      0.63577      .   S
    C159   O830      0.63577      .   S
    C321   O831      0.64018      .   S
    C159   O831      0.64018      .   S
    C283   O832      1.46811      .   S
    C0     O832      1.46811      .   S
    C294   O833      1.49261      .   S
    C2     O833      1.49261      .   S
    C295   O834      1.49272      .   S
    C3     O834      1.49272      .   S
    C306   O835      1.47746      .   S
    C5     O835      1.47746      .   S
    C307   O836      1.47650      .   S
    C4     O836      1.47650      .   S
    C319   O837      1.48309      .   S
    C7     O837      1.48309      .   S
    C330   O838      1.49126      .   S
    C9     O838      1.49126      .   S
    C331   O839      1.49146      .   S
    C8     O839      1.49146      .   S
    C342   O840      1.48687      .   S
    C10    O840      1.48687      .   S
    C343   O841      1.48884      .   S
    C11    O841      1.48884      .   S
    C366   O842      1.47163      .   S
    C14    O842      1.47163      .   S
    C367   O843      1.46897      .   S
    C15    O843      1.46897      .   S
