# CIF file generated by openbabel 2.4.90, see http://openbabel.sf.net
data_I
_chemical_name_common ''
_cell_length_a 12.194
_cell_length_b 12.182
_cell_length_c 23.169
_cell_angle_alpha 90
_cell_angle_beta 90
_cell_angle_gamma 90.001
_space_group_name_H-M_alt 'P 1'
_space_group_name_Hall 'P 1'
loop_
    _symmetry_equiv_pos_as_xyz
    x,y,z
loop_
    _atom_site_label
    _atom_site_type_symbol
    _atom_site_fract_x
    _atom_site_fract_y
    _atom_site_fract_z
    _atom_site_occupancy
    Cu0     Cu   1.00000   0.39959   0.00000   1.000
    Cu1     Cu   0.39965   0.99999   0.50000   1.000
    Cu2     Cu   0.60032   0.00000   0.50000   1.000
    Cu3     Cu   0.00000   0.60043   0.00000   1.000
    C4      C    0.85095   0.50000   0.92242   1.000
    C5      C    0.14899   0.50000   0.92242   1.000
    C6      C    0.49998   0.85093   0.42241   1.000
    C7      C    0.49998   0.14907   0.42241   1.000
    C8      C    0.14900   0.50000   0.07757   1.000
    C9      C    0.85096   0.50001   0.07757   1.000
    C10     C    0.49998   0.85093   0.57758   1.000
    C11     C    0.49998   0.14907   0.57758   1.000
    O12     O    0.88514   0.59358   0.93998   1.000
    O13     O    0.11481   0.40642   0.93990   1.000
    O14     O    0.40649   0.88511   0.43998   1.000
    O15     O    0.59347   0.11489   0.43998   1.000
    O16     O    0.11482   0.59358   0.06002   1.000
    O17     O    0.88514   0.40643   0.06002   1.000
    O18     O    0.59346   0.88511   0.56001   1.000
    O19     O    0.40649   0.11489   0.56001   1.000
    O20     O    0.11482   0.40642   0.06002   1.000
    O21     O    0.88515   0.59358   0.06002   1.000
    O22     O    0.59346   0.11489   0.56001   1.000
    O23     O    0.40649   0.88511   0.56001   1.000
    O24     O    0.88513   0.40643   0.93998   1.000
    O25     O    0.11481   0.59357   0.93998   1.000
    O26     O    0.40649   0.11489   0.43998   1.000
    O27     O    0.59347   0.88512   0.43998   1.000
    Og28    Og   0.82178   0.50000   0.90744   1.000
    Og29    Og   0.17817   0.50000   0.90744   1.000
    Og30    Og   0.49998   0.82177   0.40742   1.000
    Og31    Og   0.49998   0.17823   0.40742   1.000
    Og32    Og   0.17818   0.50000   0.09255   1.000
    Og33    Og   0.82179   0.50001   0.09255   1.000
    Og34    Og   0.49998   0.82177   0.59255   1.000
    Og35    Og   0.49998   0.17823   0.59255   1.000
loop_
    _geom_bond_atom_site_label_1
    _geom_bond_atom_site_label_2
    _geom_bond_distance
    _geom_bond_site_symmetry_2
    _ccdc_geom_bond_type
    Cu0    O20       1.97512  1_655   S
    Cu0    O17       1.97540      .   S
    Cu0    O13       1.97636  1_654   S
    Cu0    O24       1.97548  1_554   S
    Cu3    O21       1.97540  1_455   S
    Cu3    O16       1.97513      .   S
    Cu3    O12       1.97547  1_454   S
    Cu3    O25       1.97505  1_554   S
    O21    C9        1.28006      .   S
    O20    C8        1.28007      .   S
    O17    C9        1.28006      .   S
    O16    C8        1.28007      .   S
    C6     O27       1.28009      .   S
    C6     O14       1.28009      .   S
    C7     O15       1.28010      .   S
    C7     O26       1.28009      .   S
    O27    Cu2       1.97469  1_565   S
    O14    Cu1       1.97470      .   S
    O15    Cu2       1.97474      .   S
    O26    Cu1       1.97475  1_545   S
    Cu2    O22       1.97458      .   S
    Cu2    O18       1.97454  1_545   S
    Cu1    O23       1.97452      .   S
    Cu1    O19       1.97458  1_565   S
    O23    C10       1.28009      .   S
    O22    C11       1.28010      .   S
    O18    C10       1.28010      .   S
    O19    C11       1.28009      .   S
    C4     O12       1.28014      .   S
    C4     O24       1.28013      .   S
    C5     O13       1.27955      .   S
    C5     O25       1.28014      .   S
    Cu3    Cu0       2.44665  1_455   S
    Cu1    Cu2       2.44697  1_565   S
    C4     Og28      0.49694      .   S
    C5     Og29      0.49694      .   S
    C6     Og30      0.49684      .   S
    C7     Og31      0.49684      .   S
    C8     Og32      0.49694      .   S
    C9     Og33      0.49694      .   S
    C10    Og34      0.49657      .   S
    C11    Og35      0.49658      .   S
