# CIF file generated by openbabel 2.4.90, see http://openbabel.sf.net
data_I
_chemical_name_common ''
_cell_length_a 12.194
_cell_length_b 12.182
_cell_length_c 23.169
_cell_angle_alpha 90
_cell_angle_beta 90
_cell_angle_gamma 90.001
_space_group_name_H-M_alt 'P 1'
_space_group_name_Hall 'P 1'
loop_
    _symmetry_equiv_pos_as_xyz
    x,y,z
loop_
    _atom_site_label
    _atom_site_type_symbol
    _atom_site_fract_x
    _atom_site_fract_y
    _atom_site_fract_z
    _atom_site_occupancy
    C0      C    0.00000   0.60043   0.00000   1.000
    C1      C    1.00000   0.39959   0.00000   1.000
    C2      C    0.39965   0.99999   0.50000   1.000
    C3      C    0.60032   0.00000   0.50000   1.000
    C4      C    0.60752   0.67680   0.79878   1.000
    C5      C    0.75327   0.67619   0.87317   1.000
    C6      C    0.39242   0.32320   0.79878   1.000
    C7      C    0.24667   0.32381   0.87317   1.000
    C8      C    0.32336   0.60755   0.29865   1.000
    C9      C    0.32398   0.75328   0.37314   1.000
    C10     C    0.67661   0.39245   0.29865   1.000
    C11     C    0.67598   0.24671   0.37314   1.000
    C12     C    0.39243   0.67680   0.20121   1.000
    C13     C    0.24669   0.67618   0.12682   1.000
    C14     C    0.60753   0.32320   0.20121   1.000
    C15     C    0.75328   0.32382   0.12682   1.000
    C16     C    0.67660   0.60756   0.70134   1.000
    C17     C    0.67598   0.75329   0.62686   1.000
    C18     C    0.32335   0.39244   0.70134   1.000
    C19     C    0.32397   0.24671   0.62686   1.000
    C20     C    0.39243   0.32320   0.20121   1.000
    C21     C    0.24668   0.32382   0.12682   1.000
    C22     C    0.60753   0.67680   0.20121   1.000
    C23     C    0.75328   0.67619   0.12682   1.000
    C24     C    0.67660   0.39245   0.70134   1.000
    C25     C    0.67598   0.24672   0.62686   1.000
    C26     C    0.32335   0.60755   0.70134   1.000
    C27     C    0.32397   0.75329   0.62686   1.000
    C28     C    0.60752   0.32321   0.79878   1.000
    C29     C    0.75327   0.32382   0.87317   1.000
    C30     C    0.39242   0.67680   0.79878   1.000
    C31     C    0.24668   0.67618   0.87317   1.000
    C32     C    0.32336   0.39244   0.29865   1.000
    C33     C    0.32398   0.24671   0.37313   1.000
    C34     C    0.67661   0.60756   0.29865   1.000
    C35     C    0.67599   0.75329   0.37310   1.000
    C36     C    0.63968   0.59882   0.81433   1.000
    C37     C    0.72140   0.59916   0.85625   1.000
    C38     C    0.36026   0.40118   0.81433   1.000
    C39     C    0.27854   0.40085   0.85625   1.000
    C40     C    0.40126   0.63973   0.31421   1.000
    C41     C    0.40092   0.72142   0.35618   1.000
    C42     C    0.59870   0.36027   0.31421   1.000
    C43     C    0.59904   0.27857   0.35618   1.000
    C44     C    0.36028   0.59881   0.18566   1.000
    C45     C    0.27856   0.59915   0.14374   1.000
    C46     C    0.63969   0.40119   0.18566   1.000
    C47     C    0.72141   0.40085   0.14374   1.000
    C48     C    0.59870   0.63974   0.68570   1.000
    C49     C    0.59903   0.72143   0.64381   1.000
    C50     C    0.40125   0.36026   0.68578   1.000
    C51     C    0.40092   0.27857   0.64381   1.000
    C52     C    0.36027   0.40119   0.18566   1.000
    C53     C    0.27855   0.40085   0.14374   1.000
    C54     C    0.63969   0.59882   0.18566   1.000
    C55     C    0.72141   0.59916   0.14374   1.000
    C56     C    0.59870   0.36027   0.68570   1.000
    C57     C    0.59903   0.27858   0.64380   1.000
    C58     C    0.40125   0.63974   0.68570   1.000
    C59     C    0.40092   0.72143   0.64381   1.000
    C60     C    0.63968   0.40119   0.81433   1.000
    C61     C    0.72140   0.40085   0.85625   1.000
    C62     C    0.36026   0.59881   0.81433   1.000
    C63     C    0.27854   0.59915   0.85625   1.000
    C64     C    0.40126   0.36026   0.31421   1.000
    C65     C    0.40092   0.27857   0.35618   1.000
    C66     C    0.59871   0.63974   0.31421   1.000
    C67     C    0.59904   0.72143   0.35618   1.000
    C68     C    0.59831   0.50000   0.79207   1.000
    C69     C    0.85095   0.50000   0.92242   1.000
    C70     C    0.76343   0.50000   0.87749   1.000
    C71     C    0.40163   0.50000   0.79207   1.000
    C72     C    0.14899   0.50000   0.92242   1.000
    C73     C    0.23651   0.50000   0.87749   1.000
    C74     C    0.49998   0.59840   0.29190   1.000
    C75     C    0.49998   0.85093   0.42241   1.000
    C76     C    0.49998   0.76344   0.37744   1.000
    C77     C    0.49998   0.40160   0.29191   1.000
    C78     C    0.49998   0.14907   0.42241   1.000
    C79     C    0.49998   0.23656   0.37744   1.000
    C80     C    0.40164   0.50000   0.20792   1.000
    C81     C    0.14900   0.50000   0.07757   1.000
    C82     C    0.23652   0.50000   0.12250   1.000
    C83     C    0.59832   0.50000   0.20792   1.000
    C84     C    0.85096   0.50001   0.07757   1.000
    C85     C    0.76344   0.50001   0.12250   1.000
    C86     C    0.49997   0.59840   0.70808   1.000
    C87     C    0.49998   0.85093   0.57758   1.000
    C88     C    0.49998   0.76344   0.62250   1.000
    C89     C    0.49997   0.40160   0.70808   1.000
    C90     C    0.49998   0.14907   0.57758   1.000
    C91     C    0.49998   0.23656   0.62250   1.000
    C92     C    0.49997   0.50000   0.75008   1.000
    C93     C    0.49998   0.50000   0.24991   1.000
    C94     C    0.88514   0.59358   0.93998   1.000
    C95     C    0.11481   0.40642   0.93990   1.000
    C96     C    0.40649   0.88511   0.43998   1.000
    C97     C    0.59347   0.11489   0.43998   1.000
    C98     C    0.11482   0.59358   0.06002   1.000
    C99     C    0.88514   0.40643   0.06002   1.000
    C100    C    0.59346   0.88511   0.56001   1.000
    C101    C    0.40649   0.11489   0.56001   1.000
    C102    C    0.11482   0.40642   0.06002   1.000
    C103    C    0.88515   0.59358   0.06002   1.000
    C104    C    0.59346   0.11489   0.56001   1.000
    C105    C    0.40649   0.88511   0.56001   1.000
    C106    C    0.88513   0.40643   0.93998   1.000
    C107    C    0.11481   0.59357   0.93998   1.000
    C108    C    0.40649   0.11489   0.43998   1.000
    C109    C    0.59347   0.88512   0.43998   1.000
    O110    O    0.05741   0.40300   0.03001   1.000
    O111    O    0.94257   0.40301   0.03001   1.000
    O112    O    0.05740   0.40300   0.96995   1.000
    O113    O    0.94256   0.40301   0.96999   1.000
    O114    O    0.94257   0.59700   0.03001   1.000
    O115    O    0.05741   0.59700   0.03001   1.000
    O116    O    0.94257   0.59700   0.96999   1.000
    O117    O    0.05741   0.59700   0.96999   1.000
    O118    O    0.86805   0.54679   0.06879   1.000
    O119    O    0.13191   0.45321   0.06879   1.000
    O120    O    0.86805   0.45322   0.06879   1.000
    O121    O    0.13191   0.54679   0.06879   1.000
    O122    O    0.19276   0.50000   0.10003   1.000
    O123    O    0.80720   0.50001   0.10003   1.000
    O124    O    0.25754   0.45042   0.13312   1.000
    O125    O    0.25754   0.54958   0.13312   1.000
    O126    O    0.74243   0.54958   0.13312   1.000
    O127    O    0.74243   0.45043   0.13312   1.000
    O128    O    0.26262   0.63767   0.13528   1.000
    O129    O    0.73735   0.36234   0.13528   1.000
    O130    O    0.73735   0.63767   0.13528   1.000
    O131    O    0.26262   0.36233   0.13528   1.000
    O132    O    0.68055   0.59899   0.16470   1.000
    O133    O    0.31941   0.40102   0.16470   1.000
    O134    O    0.68055   0.40102   0.16470   1.000
    O135    O    0.31942   0.59898   0.16470   1.000
    O136    O    0.62361   0.63781   0.19343   1.000
    O137    O    0.61901   0.54941   0.19679   1.000
    O138    O    0.62361   0.36220   0.19343   1.000
    O139    O    0.61901   0.45060   0.19679   1.000
    O140    O    0.37636   0.63781   0.19343   1.000
    O141    O    0.38096   0.54941   0.19679   1.000
    O142    O    0.37635   0.36219   0.19343   1.000
    O143    O    0.38096   0.45059   0.19679   1.000
    O144    O    0.54915   0.50000   0.22891   1.000
    O145    O    0.45081   0.50000   0.22891   1.000
    O146    O    0.49998   0.54920   0.27091   1.000
    O147    O    0.49998   0.45080   0.27091   1.000
    O148    O    0.54934   0.61907   0.30305   1.000
    O149    O    0.45062   0.61907   0.30305   1.000
    O150    O    0.45062   0.38093   0.30306   1.000
    O151    O    0.54934   0.38093   0.30306   1.000
    O152    O    0.36231   0.37635   0.30643   1.000
    O153    O    0.63766   0.62365   0.30643   1.000
    O154    O    0.63766   0.37636   0.30643   1.000
    O155    O    0.36231   0.62364   0.30643   1.000
    O156    O    0.40109   0.31942   0.33519   1.000
    O157    O    0.59887   0.68058   0.33519   1.000
    O158    O    0.59887   0.31942   0.33519   1.000
    O159    O    0.40109   0.68058   0.33519   1.000
    O160    O    0.36245   0.26264   0.36466   1.000
    O161    O    0.45045   0.25757   0.36681   1.000
    O162    O    0.63751   0.26264   0.36466   1.000
    O163    O    0.54951   0.25757   0.36681   1.000
    O164    O    0.36245   0.73735   0.36466   1.000
    O165    O    0.45045   0.74243   0.36681   1.000
    O166    O    0.63751   0.73736   0.36464   1.000
    O167    O    0.54951   0.74243   0.36681   1.000
    O168    O    0.49998   0.80719   0.39992   1.000
    O169    O    0.49998   0.19281   0.39992   1.000
    O170    O    0.54673   0.86803   0.43119   1.000
    O171    O    0.45324   0.86802   0.43119   1.000
    O172    O    0.54672   0.13198   0.43119   1.000
    O173    O    0.45323   0.13198   0.43119   1.000
    O174    O    0.59689   0.94256   0.46999   1.000
    O175    O    0.40307   0.94255   0.46999   1.000
    O176    O    0.59689   0.05745   0.46999   1.000
    O177    O    0.40307   0.05744   0.46999   1.000
    O178    O    0.59689   0.05744   0.53000   1.000
    O179    O    0.59689   0.94256   0.53000   1.000
    O180    O    0.40307   0.94255   0.53000   1.000
    O181    O    0.40307   0.05744   0.53000   1.000
    O182    O    0.45323   0.86802   0.56879   1.000
    O183    O    0.54672   0.13198   0.56879   1.000
    O184    O    0.54672   0.86802   0.56879   1.000
    O185    O    0.45323   0.13198   0.56879   1.000
    O186    O    0.49998   0.80719   0.60004   1.000
    O187    O    0.49998   0.19281   0.60004   1.000
    O188    O    0.54950   0.74243   0.63315   1.000
    O189    O    0.45045   0.74243   0.63315   1.000
    O190    O    0.54950   0.25757   0.63315   1.000
    O191    O    0.45045   0.25757   0.63315   1.000
    O192    O    0.36245   0.73736   0.63533   1.000
    O193    O    0.63750   0.26265   0.63533   1.000
    O194    O    0.63751   0.73736   0.63533   1.000
    O195    O    0.36244   0.26264   0.63533   1.000
    O196    O    0.59886   0.31942   0.66475   1.000
    O197    O    0.59887   0.68058   0.66475   1.000
    O198    O    0.40108   0.31942   0.66479   1.000
    O199    O    0.40108   0.68058   0.66475   1.000
    O200    O    0.63765   0.62365   0.69352   1.000
    O201    O    0.54934   0.61907   0.69689   1.000
    O202    O    0.36230   0.62364   0.69352   1.000
    O203    O    0.45061   0.61907   0.69689   1.000
    O204    O    0.63765   0.37636   0.69352   1.000
    O205    O    0.54933   0.38093   0.69689   1.000
    O206    O    0.36230   0.37635   0.69356   1.000
    O207    O    0.45061   0.38093   0.69693   1.000
    O208    O    0.49997   0.54920   0.72908   1.000
    O209    O    0.49997   0.45080   0.72908   1.000
    O210    O    0.45080   0.50000   0.77107   1.000
    O211    O    0.54914   0.50000   0.77107   1.000
    O212    O    0.38095   0.45059   0.80320   1.000
    O213    O    0.38095   0.54941   0.80320   1.000
    O214    O    0.61900   0.54941   0.80320   1.000
    O215    O    0.61900   0.45060   0.80320   1.000
    O216    O    0.62360   0.36220   0.80655   1.000
    O217    O    0.62360   0.63781   0.80655   1.000
    O218    O    0.37634   0.36219   0.80655   1.000
    O219    O    0.37634   0.63781   0.80655   1.000
    O220    O    0.68054   0.59899   0.83529   1.000
    O221    O    0.31940   0.40102   0.83529   1.000
    O222    O    0.31940   0.59898   0.83529   1.000
    O223    O    0.68054   0.40102   0.83529   1.000
    O224    O    0.73733   0.36234   0.86471   1.000
    O225    O    0.74242   0.45043   0.86687   1.000
    O226    O    0.73734   0.63767   0.86471   1.000
    O227    O    0.74242   0.54958   0.86687   1.000
    O228    O    0.26261   0.63767   0.86471   1.000
    O229    O    0.25753   0.54957   0.86687   1.000
    O230    O    0.26261   0.36233   0.86471   1.000
    O231    O    0.25753   0.45042   0.86687   1.000
    O232    O    0.80719   0.50000   0.89995   1.000
    O233    O    0.19275   0.50000   0.89995   1.000
    O234    O    0.86804   0.54679   0.93120   1.000
    O235    O    0.86804   0.45322   0.93120   1.000
    O236    O    0.13190   0.45321   0.93116   1.000
    O237    O    0.13190   0.54678   0.93120   1.000
    O238    O    1.00000   0.50001   0.00000   1.000
    O239    O    0.49998   1.00000   0.50000   1.000
loop_
    _geom_bond_atom_site_label_1
    _geom_bond_atom_site_label_2
    _geom_bond_distance
    _geom_bond_site_symmetry_2
    _ccdc_geom_bond_type
    C1     O110      0.98756  1_655   S
    C102   O110      0.98756      .   S
    C1     O111      0.98770      .   S
    C99    O111      0.98770      .   S
    C1     O112      0.98818  1_654   S
    C95    O112      0.98818      .   S
    C1     O113      0.98774  1_554   S
    C106   O113      0.98774      .   S
    C0     O114      0.98770  1_455   S
    C103   O114      0.98770      .   S
    C0     O115      0.98756      .   S
    C98    O115      0.98756      .   S
    C0     O116      0.98774  1_454   S
    C94    O116      0.98774      .   S
    C0     O117      0.98753  1_554   S
    C107   O117      0.98753      .   S
    C103   O118      0.64003      .   S
    C84    O118      0.64003      .   S
    C102   O119      0.64003      .   S
    C81    O119      0.64003      .   S
    C99    O120      0.64003      .   S
    C84    O120      0.64003      .   S
    C98    O121      0.64003      .   S
    C81    O121      0.64003      .   S
    C81    O122      0.74541      .   S
    C82    O122      0.74541      .   S
    C84    O123      0.74541      .   S
    C85    O123      0.74541      .   S
    C82    O124      0.70068      .   S
    C53    O124      0.70068      .   S
    C82    O125      0.70068      .   S
    C45    O125      0.70068      .   S
    C85    O126      0.70068      .   S
    C55    O126      0.70068      .   S
    C85    O127      0.70068      .   S
    C47    O127      0.70068      .   S
    C13    O128      0.54435      .   S
    C45    O128      0.54435      .   S
    C15    O129      0.54435      .   S
    C47    O129      0.54435      .   S
    C23    O130      0.54435      .   S
    C55    O130      0.54435      .   S
    C21    O131      0.54435      .   S
    C53    O131      0.54435      .   S
    C55    O132      0.69577      .   S
    C54    O132      0.69577      .   S
    C53    O133      0.69577      .   S
    C52    O133      0.69577      .   S
    C47    O134      0.69577      .   S
    C46    O134      0.69577      .   S
    C45    O135      0.69577      .   S
    C44    O135      0.69577      .   S
    C54    O136      0.54453      .   S
    C22    O136      0.54453      .   S
    C54    O137      0.70170      .   S
    C83    O137      0.70170      .   S
    C46    O138      0.54454      .   S
    C14    O138      0.54454      .   S
    C46    O139      0.70169      .   S
    C83    O139      0.70169      .   S
    C44    O140      0.54453      .   S
    C12    O140      0.54453      .   S
    C44    O141      0.70169      .   S
    C80    O141      0.70169      .   S
    C52    O142      0.54454      .   S
    C20    O142      0.54454      .   S
    C52    O143      0.70169      .   S
    C80    O143      0.70169      .   S
    C83    O144      0.77208      .   S
    C93    O144      0.77208      .   S
    C80    O145      0.77208      .   S
    C93    O145      0.77208      .   S
    C93    O146      0.77190      .   S
    C74    O146      0.77190      .   S
    C93    O147      0.77197      .   S
    C77    O147      0.77197      .   S
    C74    O148      0.70178      .   S
    C66    O148      0.70178      .   S
    C74    O149      0.70178      .   S
    C40    O149      0.70178      .   S
    C77    O150      0.70174      .   S
    C64    O150      0.70174      .   S
    C77    O151      0.70173      .   S
    C42    O151      0.70173      .   S
    C32    O152      0.54453      .   S
    C64    O152      0.54453      .   S
    C34    O153      0.54454      .   S
    C66    O153      0.54454      .   S
    C10    O154      0.54454      .   S
    C42    O154      0.54454      .   S
    C8     O155      0.54454      .   S
    C40    O155      0.54454      .   S
    C64    O156      0.69569      .   S
    C65    O156      0.69569      .   S
    C66    O157      0.69569      .   S
    C67    O157      0.69569      .   S
    C42    O158      0.69569      .   S
    C43    O158      0.69569      .   S
    C40    O159      0.69569      .   S
    C41    O159      0.69569      .   S
    C65    O160      0.54433      .   S
    C33    O160      0.54433      .   S
    C65    O161      0.70064      .   S
    C79    O161      0.70064      .   S
    C43    O162      0.54437      .   S
    C11    O162      0.54437      .   S
    C43    O163      0.70065      .   S
    C79    O163      0.70065      .   S
    C41    O164      0.54438      .   S
    C9     O164      0.54438      .   S
    C41    O165      0.70065      .   S
    C76    O165      0.70065      .   S
    C67    O166      0.54421      .   S
    C35    O166      0.54421      .   S
    C67    O167      0.70065      .   S
    C76    O167      0.70065      .   S
    C76    O168      0.74526      .   S
    C75    O168      0.74526      .   S
    C79    O169      0.74526      .   S
    C78    O169      0.74526      .   S
    C75    O170      0.64005      .   S
    C109   O170      0.64005      .   S
    C75    O171      0.64005      .   S
    C96    O171      0.64005      .   S
    C78    O172      0.64005      .   S
    C97    O172      0.64005      .   S
    C78    O173      0.64004      .   S
    C108   O173      0.64004      .   S
    C109   O174      0.98734      .   S
    C3     O174      0.98734  1_545   S
    C96    O175      0.98735      .   S
    C2     O175      0.98735      .   S
    C97    O176      0.98737      .   S
    C3     O176      0.98737      .   S
    C108   O177      0.98737      .   S
    C2     O177      0.98737  1_565   S
    C3     O178      0.98729      .   S
    C104   O178      0.98729      .   S
    C3     O179      0.98727  1_545   S
    C100   O179      0.98727      .   S
    C2     O180      0.98726      .   S
    C105   O180      0.98726      .   S
    C2     O181      0.98729  1_565   S
    C101   O181      0.98729      .   S
    C105   O182      0.64004      .   S
    C87    O182      0.64004      .   S
    C104   O183      0.64005      .   S
    C90    O183      0.64005      .   S
    C100   O184      0.64005      .   S
    C87    O184      0.64005      .   S
    C101   O185      0.64004      .   S
    C90    O185      0.64004      .   S
    C87    O186      0.74486      .   S
    C88    O186      0.74486      .   S
    C90    O187      0.74486      .   S
    C91    O187      0.74486      .   S
    C88    O188      0.70085      .   S
    C49    O188      0.70085      .   S
    C88    O189      0.70085      .   S
    C59    O189      0.70085      .   S
    C91    O190      0.70080      .   S
    C57    O190      0.70080      .   S
    C91    O191      0.70085      .   S
    C51    O191      0.70085      .   S
    C27    O192      0.54433      .   S
    C59    O192      0.54433      .   S
    C25    O193      0.54429      .   S
    C57    O193      0.54429      .   S
    C17    O194      0.54434      .   S
    C49    O194      0.54434      .   S
    C19    O195      0.54433      .   S
    C51    O195      0.54433      .   S
    C57    O196      0.69513      .   S
    C56    O196      0.69513      .   S
    C49    O197      0.69504      .   S
    C48    O197      0.69504      .   S
    C51    O198      0.69569      .   S
    C50    O198      0.69569      .   S
    C59    O199      0.69504      .   S
    C58    O199      0.69504      .   S
    C48    O200      0.54484      .   S
    C16    O200      0.54484      .   S
    C48    O201      0.70208      .   S
    C86    O201      0.70208      .   S
    C58    O202      0.54484      .   S
    C26    O202      0.54484      .   S
    C58    O203      0.70208      .   S
    C86    O203      0.70208      .   S
    C56    O204      0.54484      .   S
    C24    O204      0.54484      .   S
    C56    O205      0.70208      .   S
    C89    O205      0.70208      .   S
    C50    O206      0.54454      .   S
    C18    O206      0.54454      .   S
    C50    O207      0.70173      .   S
    C89    O207      0.70173      .   S
    C86    O208      0.77197      .   S
    C92    O208      0.77197      .   S
    C89    O209      0.77197      .   S
    C92    O209      0.77197      .   S
    C92    O210      0.77208      .   S
    C71    O210      0.77208      .   S
    C92    O211      0.77208      .   S
    C68    O211      0.77208      .   S
    C71    O212      0.70170      .   S
    C38    O212      0.70170      .   S
    C71    O213      0.70169      .   S
    C62    O213      0.70169      .   S
    C68    O214      0.70169      .   S
    C36    O214      0.70169      .   S
    C68    O215      0.70169      .   S
    C60    O215      0.70169      .   S
    C28    O216      0.54454      .   S
    C60    O216      0.54454      .   S
    C4     O217      0.54453      .   S
    C36    O217      0.54453      .   S
    C6     O218      0.54454      .   S
    C38    O218      0.54454      .   S
    C30    O219      0.54453      .   S
    C62    O219      0.54453      .   S
    C36    O220      0.69577      .   S
    C37    O220      0.69577      .   S
    C38    O221      0.69576      .   S
    C39    O221      0.69576      .   S
    C62    O222      0.69577      .   S
    C63    O222      0.69577      .   S
    C60    O223      0.69576      .   S
    C61    O223      0.69576      .   S
    C61    O224      0.54435      .   S
    C29    O224      0.54435      .   S
    C61    O225      0.70068      .   S
    C70    O225      0.70068      .   S
    C37    O226      0.54435      .   S
    C5     O226      0.54435      .   S
    C37    O227      0.70068      .   S
    C70    O227      0.70068      .   S
    C63    O228      0.54435      .   S
    C31    O228      0.54435      .   S
    C63    O229      0.70068      .   S
    C73    O229      0.70068      .   S
    C39    O230      0.54435      .   S
    C7     O230      0.54435      .   S
    C39    O231      0.70068      .   S
    C73    O231      0.70068      .   S
    C70    O232      0.74541      .   S
    C69    O232      0.74541      .   S
    C73    O233      0.74541      .   S
    C72    O233      0.74541      .   S
    C69    O234      0.64007      .   S
    C94    O234      0.64007      .   S
    C69    O235      0.64007      .   S
    C106   O235      0.64007      .   S
    C72    O236      0.63977      .   S
    C95    O236      0.63977      .   S
    C72    O237      0.64007      .   S
    C107   O237      0.64007      .   S
    C0     O238      1.22332  1_455   S
    C1     O238      1.22332      .   S
    C2     O239      1.22348      .   S
    C3     O239      1.22348  1_545   S
