# CIF file generated by openbabel 2.4.90, see http://openbabel.sf.net
data_I
_chemical_name_common ''
_cell_length_a 12.194
_cell_length_b 12.182
_cell_length_c 23.169
_cell_angle_alpha 90
_cell_angle_beta 90
_cell_angle_gamma 90.001
_space_group_name_H-M_alt 'P 1'
_space_group_name_Hall 'P 1'
loop_
    _symmetry_equiv_pos_as_xyz
    x,y,z
loop_
    _atom_site_label
    _atom_site_type_symbol
    _atom_site_fract_x
    _atom_site_fract_y
    _atom_site_fract_z
    _atom_site_occupancy
    N0      N    0.49997   0.50000   0.75008   1.000
    N1      N    0.49998   0.50000   0.24991   1.000
    Zr2     Zr   0.99998   0.50000   0.99999   1.000
    O3      O    0.87193   0.50000   0.06614   1.000
    O4      O    0.87193   0.50000   0.93385   1.000
    O5      O    0.12803   0.50000   0.06614   1.000
    O6      O    0.12803   0.50000   0.93385   1.000
    Zr7     Zr   0.49998   0.00000   0.50000   1.000
    O8      O    0.49998   0.12806   0.43382   1.000
    O9      O    0.49998   0.87194   0.56616   1.000
    O10     O    0.49998   0.87194   0.43382   1.000
    O11     O    0.49998   0.12806   0.56616   1.000
loop_
    _geom_bond_atom_site_label_1
    _geom_bond_atom_site_label_2
    _geom_bond_distance
    _geom_bond_site_symmetry_2
    _ccdc_geom_bond_type
    Zr2    O3        2.18784  1_556   S
    N1     O3        6.22095      .   S
    Zr2    O4        2.18785      .   S
    N0     O4        6.22096      .   S
    Zr2    O5        2.18786  1_656   S
    N1     O5        6.22097      .   S
    Zr2    O6        2.18778  1_655   S
    N0     O6        6.22089      .   S
    Zr7    O8        2.18729      .   S
    N1     O8        6.21985      .   S
    Zr7    O9        2.18709  1_545   S
    N0     O9        6.22001      .   S
    Zr7    O10       2.18731  1_545   S
    N1     O10       6.21984      .   S
    Zr7    O11       2.18713      .   S
    N0     O11       6.22000      .   S
