# CIF file generated by openbabel 2.4.90, see http://openbabel.sf.net
data_I
_chemical_name_common ''
_cell_length_a 12.194
_cell_length_b 12.182
_cell_length_c 23.169
_cell_angle_alpha 90
_cell_angle_beta 90
_cell_angle_gamma 90.001
_space_group_name_H-M_alt 'P 1'
_space_group_name_Hall 'P 1'
loop_
    _symmetry_equiv_pos_as_xyz
    x,y,z
loop_
    _atom_site_label
    _atom_site_type_symbol
    _atom_site_fract_x
    _atom_site_fract_y
    _atom_site_fract_z
    _atom_site_occupancy
    Zr0     Zr   0.00000   0.60043   0.00000   1.000
    Zr1     Zr   1.00000   0.39959   0.00000   1.000
    Zr2     Zr   0.39965   0.99999   0.50000   1.000
    Zr3     Zr   0.60032   0.00000   0.50000   1.000
    Zr4     Zr   0.85095   0.50000   0.92242   1.000
    Zr5     Zr   0.14899   0.50000   0.92242   1.000
    Zr6     Zr   0.49998   0.85093   0.42241   1.000
    Zr7     Zr   0.49998   0.14907   0.42241   1.000
    Zr8     Zr   0.14900   0.50000   0.07757   1.000
    Zr9     Zr   0.85096   0.50001   0.07757   1.000
    Zr10    Zr   0.49998   0.85093   0.57758   1.000
    Zr11    Zr   0.49998   0.14907   0.57758   1.000
    Zr12    Zr   0.88514   0.59358   0.93998   1.000
    Zr13    Zr   0.11481   0.40642   0.93990   1.000
    Zr14    Zr   0.40649   0.88511   0.43998   1.000
    Zr15    Zr   0.59347   0.11489   0.43998   1.000
    Zr16    Zr   0.11482   0.59358   0.06002   1.000
    Zr17    Zr   0.88514   0.40643   0.06002   1.000
    Zr18    Zr   0.59346   0.88511   0.56001   1.000
    Zr19    Zr   0.40649   0.11489   0.56001   1.000
    Zr20    Zr   0.11482   0.40642   0.06002   1.000
    Zr21    Zr   0.88515   0.59358   0.06002   1.000
    Zr22    Zr   0.59346   0.11489   0.56001   1.000
    Zr23    Zr   0.40649   0.88511   0.56001   1.000
    Zr24    Zr   0.88513   0.40643   0.93998   1.000
    Zr25    Zr   0.11481   0.59357   0.93998   1.000
    Zr26    Zr   0.40649   0.11489   0.43998   1.000
    Zr27    Zr   0.59347   0.88512   0.43998   1.000
    O28     O    0.05741   0.40300   0.03001   1.000
    O29     O    0.94257   0.40301   0.03001   1.000
    O30     O    0.05740   0.40300   0.96995   1.000
    O31     O    0.94256   0.40301   0.96999   1.000
    O32     O    0.94257   0.59700   0.03001   1.000
    O33     O    0.05741   0.59700   0.03001   1.000
    O34     O    0.94257   0.59700   0.96999   1.000
    O35     O    0.05741   0.59700   0.96999   1.000
    O36     O    0.86805   0.54679   0.06879   1.000
    O37     O    0.13191   0.45321   0.06879   1.000
    O38     O    0.86805   0.45322   0.06879   1.000
    O39     O    0.13191   0.54679   0.06879   1.000
    O40     O    0.54673   0.86803   0.43119   1.000
    O41     O    0.45324   0.86802   0.43119   1.000
    O42     O    0.54672   0.13198   0.43119   1.000
    O43     O    0.45323   0.13198   0.43119   1.000
    O44     O    0.59689   0.94256   0.46999   1.000
    O45     O    0.40307   0.94255   0.46999   1.000
    O46     O    0.59689   0.05745   0.46999   1.000
    O47     O    0.40307   0.05744   0.46999   1.000
    O48     O    0.59689   0.05744   0.53000   1.000
    O49     O    0.59689   0.94256   0.53000   1.000
    O50     O    0.40307   0.94255   0.53000   1.000
    O51     O    0.40307   0.05744   0.53000   1.000
    O52     O    0.45323   0.86802   0.56879   1.000
    O53     O    0.54672   0.13198   0.56879   1.000
    O54     O    0.54672   0.86802   0.56879   1.000
    O55     O    0.45323   0.13198   0.56879   1.000
    O56     O    0.86804   0.54679   0.93120   1.000
    O57     O    0.86804   0.45322   0.93120   1.000
    O58     O    0.13190   0.45321   0.93116   1.000
    O59     O    0.13190   0.54678   0.93120   1.000
    O60     O    1.00000   0.50001   0.00000   1.000
    O61     O    0.49998   1.00000   0.50000   1.000
    N62     N    0.49997   0.50000   0.75008   1.000
    O63     O    0.49998   0.74389   0.63232   1.000
    O64     O    0.49997   0.25612   0.63232   1.000
    O65     O    0.25607   0.50000   0.86771   1.000
    O66     O    0.74387   0.50000   0.86771   1.000
    N67     N    0.49998   0.50000   0.24991   1.000
    O68     O    0.25608   0.50000   0.13228   1.000
    O69     O    0.74388   0.50001   0.13228   1.000
    O70     O    0.49998   0.74389   0.36765   1.000
    O71     O    0.49998   0.25611   0.36765   1.000
loop_
    _geom_bond_atom_site_label_1
    _geom_bond_atom_site_label_2
    _geom_bond_distance
    _geom_bond_site_symmetry_2
    _ccdc_geom_bond_type
    Zr1    O28       0.98756  1_655   S
    Zr20   O28       0.98756      .   S
    Zr1    O29       0.98770      .   S
    Zr17   O29       0.98770      .   S
    Zr1    O30       0.98818  1_654   S
    Zr13   O30       0.98818      .   S
    Zr1    O31       0.98774  1_554   S
    Zr24   O31       0.98774      .   S
    Zr0    O32       0.98770  1_455   S
    Zr21   O32       0.98770      .   S
    Zr0    O33       0.98756      .   S
    Zr16   O33       0.98756      .   S
    Zr0    O34       0.98774  1_454   S
    Zr12   O34       0.98774      .   S
    Zr0    O35       0.98753  1_554   S
    Zr25   O35       0.98753      .   S
    Zr21   O36       0.64003      .   S
    Zr9    O36       0.64003      .   S
    Zr20   O37       0.64003      .   S
    Zr8    O37       0.64003      .   S
    Zr17   O38       0.64003      .   S
    Zr9    O38       0.64003      .   S
    Zr16   O39       0.64003      .   S
    Zr8    O39       0.64003      .   S
    Zr6    O40       0.64005      .   S
    Zr27   O40       0.64005      .   S
    Zr6    O41       0.64005      .   S
    Zr14   O41       0.64005      .   S
    Zr7    O42       0.64005      .   S
    Zr15   O42       0.64005      .   S
    Zr7    O43       0.64004      .   S
    Zr26   O43       0.64004      .   S
    Zr27   O44       0.98734      .   S
    Zr3    O44       0.98734  1_545   S
    Zr14   O45       0.98735      .   S
    Zr2    O45       0.98735      .   S
    Zr15   O46       0.98737      .   S
    Zr3    O46       0.98737      .   S
    Zr26   O47       0.98737      .   S
    Zr2    O47       0.98737  1_565   S
    Zr3    O48       0.98729      .   S
    Zr22   O48       0.98729      .   S
    Zr3    O49       0.98727  1_545   S
    Zr18   O49       0.98727      .   S
    Zr2    O50       0.98726      .   S
    Zr23   O50       0.98726      .   S
    Zr2    O51       0.98729  1_565   S
    Zr19   O51       0.98729      .   S
    Zr23   O52       0.64004      .   S
    Zr10   O52       0.64004      .   S
    Zr22   O53       0.64005      .   S
    Zr11   O53       0.64005      .   S
    Zr18   O54       0.64005      .   S
    Zr10   O54       0.64005      .   S
    Zr19   O55       0.64004      .   S
    Zr11   O55       0.64004      .   S
    Zr4    O56       0.64007      .   S
    Zr12   O56       0.64007      .   S
    Zr4    O57       0.64007      .   S
    Zr24   O57       0.64007      .   S
    Zr5    O58       0.63977      .   S
    Zr13   O58       0.63977      .   S
    Zr5    O59       0.64007      .   S
    Zr25   O59       0.64007      .   S
    Zr0    O60       1.22332  1_455   S
    Zr1    O60       1.22332      .   S
    Zr2    O61       1.22348      .   S
    Zr3    O61       1.22348  1_545   S
    N62    O63       4.03373      .   S
    Zr10   O63       1.81909      .   S
    N62    O64       4.03368      .   S
    Zr11   O64       1.81916      .   S
    N62    O65       4.03394      .   S
    Zr5    O65       1.81983      .   S
    N62    O66       4.03395      .   S
    Zr4    O66       1.81983      .   S
    N67    O68       4.03394      .   S
    Zr8    O68       1.81983      .   S
    N67    O69       4.03394      .   S
    Zr9    O69       1.81983      .   S
    N67    O70       4.03335      .   S
    Zr6    O70       1.81949      .   S
    N67    O71       4.03338      .   S
    Zr7    O71       1.81946      .   S
