# CIF file generated by openbabel 2.4.90, see http://openbabel.sf.net
data_I
_chemical_name_common ''
_cell_length_a 14.418
_cell_length_b 14.304
_cell_length_c 15.436
_cell_angle_alpha 89.978
_cell_angle_beta 90
_cell_angle_gamma 89.985
_space_group_name_H-M_alt 'P 1'
_space_group_name_Hall 'P 1'
loop_
    _symmetry_equiv_pos_as_xyz
    x,y,z
loop_
    _atom_site_label
    _atom_site_type_symbol
    _atom_site_fract_x
    _atom_site_fract_y
    _atom_site_fract_z
    _atom_site_occupancy
    Si0     Si   0.25000   0.75054   0.80000   1.000
    H1      H    0.24929   0.41251   0.88518   1.000
    H2      H    0.25034   0.91257   0.88549   1.000
    H3      H    0.25070   0.08771   0.88545   1.000
    H4      H    0.24965   0.58772   0.88518   1.000
    H5      H    0.08697   0.74965   0.88529   1.000
    H6      H    0.58701   0.74993   0.38529   1.000
    H7      H    0.58699   0.74989   0.88529   1.000
    H8      H    0.41305   0.75020   0.38533   1.000
    H9      H    0.41303   0.74992   0.88530   1.000
    H10     H    0.91299   0.74955   0.88528   1.000
    H11     H    0.25038   0.41254   0.61451   1.000
    H12     H    0.24977   0.91265   0.61478   1.000
    H13     H    0.24980   0.08769   0.61475   1.000
    H14     H    0.25040   0.58786   0.61452   1.000
    H15     H    0.41298   0.75011   0.11472   1.000
    H16     H    0.41300   0.75011   0.61470   1.000
    H17     H    0.91302   0.75003   0.61460   1.000
    H18     H    0.08700   0.75016   0.61469   1.000
    H19     H    0.58695   0.74997   0.11469   1.000
    H20     H    0.58697   0.74999   0.61469   1.000
    C21     C    0.24969   0.45145   0.82458   1.000
    C22     C    0.25023   0.95146   0.82484   1.000
    C23     C    0.25033   0.04881   0.82483   1.000
    C24     C    0.24980   0.54878   0.82458   1.000
    C25     C    0.04832   0.74979   0.82467   1.000
    C26     C    0.54833   0.75004   0.32468   1.000
    C27     C    0.54832   0.74997   0.82468   1.000
    C28     C    0.45169   0.75016   0.32470   1.000
    C29     C    0.45168   0.75000   0.82468   1.000
    C30     C    0.95166   0.74974   0.82460   1.000
    C31     C    0.25020   0.45150   0.67509   1.000
    C32     C    0.24989   0.95149   0.67543   1.000
    C33     C    0.24992   0.04883   0.67541   1.000
    C34     C    0.25023   0.54884   0.67509   1.000
    C35     C    0.45166   0.75013   0.17533   1.000
    C36     C    0.45167   0.75008   0.67531   1.000
    C37     C    0.95167   0.75000   0.67500   1.000
    C38     C    0.04834   0.75006   0.67530   1.000
    C39     C    0.54830   0.75004   0.17531   1.000
    C40     C    0.54831   0.75003   0.67530   1.000
    N41     N    0.24993   0.40266   0.74984   1.000
    N42     N    0.25000   0.90257   0.75014   1.000
    N43     N    0.25014   0.09773   0.75010   1.000
    N44     N    0.25005   0.59762   0.74984   1.000
    N45     N    0.09690   0.74997   0.74999   1.000
    N46     N    0.59688   0.74998   0.24999   1.000
    N47     N    0.59689   0.74997   0.74999   1.000
    N48     N    0.40310   0.75017   0.25003   1.000
    N49     N    0.40310   0.75003   0.75000   1.000
    N50     N    0.90309   0.74982   0.74998   1.000
    F51     F    0.25000   0.74931   0.88500   1.000
loop_
    _geom_bond_atom_site_label_1
    _geom_bond_atom_site_label_2
    _geom_bond_distance
    _geom_bond_site_symmetry_2
    _ccdc_geom_bond_type
    H19    C39       1.08909      .   S
    H15    C35       1.08915      .   S
    C39    C35       1.39337      .   S
    C39    N46       1.34892      .   S
    C35    N48       1.34893      .   S
    N46    C26       1.34880      .   S
    N48    C28       1.34880      .   S
    C26    C28       1.39336      .   S
    C26    H6        1.08915      .   S
    C28    H8        1.08920      .   S
    H11    C31       1.08881      .   S
    H14    C34       1.08873      .   S
    H17    C37       1.08621      .   S
    H20    C40       1.08902      .   S
    H18    C38       1.08909      .   S
    H16    C36       1.08909      .   S
    H13    C33       1.08874      .   S
    H12    C32       1.08879      .   S
    C37    C38       1.39368  1_655   S
    C37    N50       1.35283      .   S
    C31    C34       1.39228      .   S
    C31    N41       1.34869      .   S
    C34    N44       1.34866      .   S
    C38    N45       1.34888      .   S
    C40    C36       1.39336      .   S
    C40    N47       1.34898      .   S
    C36    N49       1.34888      .   S
    C33    C32       1.39235  1_545   S
    C33    N43       1.34872      .   S
    C32    N42       1.34872      .   S
    N44    C24       1.34852      .   S
    N41    C21       1.34863      .   S
    N50    C30       1.34796      .   S
    N45    C25       1.34887      .   S
    N47    C27       1.34888      .   S
    N49    C29       1.34885      .   S
    N43    C23       1.34892      .   S
    N42    C22       1.34886      .   S
    C24    C21       1.39217      .   S
    C24    H4        1.08891      .   S
    C21    H1        1.08852      .   S
    C30    C25       1.39367  1_655   S
    C30    H10       1.09002      .   S
    C25    H5        1.08912      .   S
    C29    C27       1.39337      .   S
    C29    H9        1.08914      .   S
    C27    H7        1.08908      .   S
    C23    C22       1.39244  1_545   S
    C23    H3        1.08890      .   S
    C22    H2        1.08881      .   S
    F51    Si0       1.31217      .   S
