# CIF file generated by openbabel 2.4.90, see http://openbabel.sf.net
data_I
_chemical_name_common ''
_cell_length_a 14.418
_cell_length_b 14.304
_cell_length_c 15.436
_cell_angle_alpha 89.978
_cell_angle_beta 90
_cell_angle_gamma 89.985
_space_group_name_H-M_alt 'P 1'
_space_group_name_Hall 'P 1'
loop_
    _symmetry_equiv_pos_as_xyz
    x,y,z
loop_
    _atom_site_label
    _atom_site_type_symbol
    _atom_site_fract_x
    _atom_site_fract_y
    _atom_site_fract_z
    _atom_site_occupancy
    Zn0     Zn   0.25000   0.25053   0.74985   1.000
    Zn1     Zn   0.25000   0.74993   0.25010   1.000
    Zn2     Zn   0.74999   0.25042   0.25000   1.000
    Zn3     Zn   0.74999   0.25043   0.74999   1.000
    Zn4     Zn   0.74999   0.74959   0.24997   1.000
    Zn5     Zn   0.74999   0.74959   0.74997   1.000
    Zn6     Zn   0.25000   0.25067   0.24996   1.000
    F7      F    0.16739   0.66683   0.20000   1.000
    F8      F    0.25000   0.74931   0.11495   1.000
loop_
    _geom_bond_atom_site_label_1
    _geom_bond_atom_site_label_2
    _geom_bond_distance
    _geom_bond_site_symmetry_2
    _ccdc_geom_bond_type
    F8     Zn1       2.08620      .   S
    Zn1    F7        1.85226      .   S
