# CIF file generated by openbabel 2.4.90, see http://openbabel.sf.net
data_I
_chemical_name_common ''
_cell_length_a 14.418
_cell_length_b 14.304
_cell_length_c 15.436
_cell_angle_alpha 89.978
_cell_angle_beta 90
_cell_angle_gamma 89.985
_space_group_name_H-M_alt 'P 1'
_space_group_name_Hall 'P 1'
loop_
    _symmetry_equiv_pos_as_xyz
    x,y,z
loop_
    _atom_site_label
    _atom_site_type_symbol
    _atom_site_fract_x
    _atom_site_fract_y
    _atom_site_fract_z
    _atom_site_occupancy
    Zr0     Zr   0.25000   0.25067   0.24996   1.000
    Zr1     Zr   0.25000   0.25053   0.74985   1.000
    Zr2     Zr   0.25000   0.74993   0.25010   1.000
    Zr3     Zr   0.25000   0.74967   0.75005   1.000
    Zr4     Zr   0.74999   0.25042   0.25000   1.000
    Zr5     Zr   0.74999   0.25043   0.74999   1.000
    Zr6     Zr   0.74999   0.74959   0.24997   1.000
    Zr7     Zr   0.74999   0.74959   0.74997   1.000
    Zr8     Zr   0.25000   0.74931   0.11495   1.000
    Zr9     Zr   0.33230   0.83479   0.99999   1.000
    Zr10    Zr   0.16739   0.66683   0.20000   1.000
    Zr11    Zr   0.16769   0.83479   0.99999   1.000
    Zr12    Zr   0.33262   0.66683   0.99998   1.000
    O13     O    0.25000   0.74962   0.18253   1.000
    O14     O    0.20870   0.70838   0.22505   1.000
    N15     N    0.24997   0.50046   0.25041   1.000
    O16     O    0.24997   0.41364   0.25029   1.000
    O17     O    0.25000   0.58720   0.25035   1.000
    N18     N    0.74999   0.75034   0.49998   1.000
    N19     N    0.74994   0.50001   0.24997   1.000
    O20     O    0.74995   0.41324   0.24996   1.000
    O21     O    0.74996   0.58678   0.24997   1.000
    N22     N    0.74993   0.50001   0.74998   1.000
    O23     O    0.74994   0.41324   0.74998   1.000
    O24     O    0.74995   0.58678   0.74998   1.000
    N25     N    0.74998   0.00001   0.24498   1.000
    O26     O    0.74997   0.91301   0.24746   1.000
    O27     O    0.74999   0.08701   0.23499   1.000
    N28     N    0.74997   0.00001   0.74996   1.000
    O29     O    0.74997   0.91301   0.74997   1.000
    O30     O    0.74999   0.08701   0.74997   1.000
    N31     N    0.25012   0.00048   0.24955   1.000
    O32     O    0.25006   0.91345   0.24970   1.000
    O33     O    0.25009   0.08742   0.24964   1.000
    N34     N    0.25011   0.00015   0.75012   1.000
    O35     O    0.25009   0.08714   0.75005   1.000
    N36     N    0.24996   0.50015   0.74984   1.000
    O37     O    0.24996   0.41337   0.74984   1.000
    N38     N    0.00000   0.25026   0.24995   1.000
    O39     O    0.08673   0.25039   0.24995   1.000
    O40     O    0.91327   0.25029   0.24997   1.000
    N41     N    0.00000   0.25012   0.74999   1.000
    O42     O    0.08673   0.25022   0.74995   1.000
    O43     O    0.91327   0.25021   0.74999   1.000
    N44     N    0.00000   0.74996   0.25001   1.000
    O45     O    0.08673   0.74999   0.25004   1.000
    O46     O    0.91327   0.74984   0.25000   1.000
    N47     N    1.00000   0.74988   0.74994   1.000
    O48     O    0.91327   0.74979   0.74996   1.000
    N49     N    0.50000   0.25031   0.24999   1.000
    O50     O    0.58672   0.25030   0.25000   1.000
    O51     O    0.41328   0.25043   0.24998   1.000
    N52     N    0.50000   0.25017   0.74994   1.000
    O53     O    0.58672   0.25022   0.74996   1.000
    O54     O    0.41327   0.25027   0.74992   1.000
    N55     N    0.50000   0.75007   0.25001   1.000
    O56     O    0.58672   0.74993   0.24999   1.000
    N57     N    0.25000   0.25102   0.99997   1.000
    N58     N    0.24999   0.24969   0.49996   1.000
    N59     N    0.25000   0.74992   0.84250   1.000
    O60     O    0.25000   0.75001   0.80876   1.000
    N61     N    0.25000   0.75102   0.49999   1.000
    N62     N    0.74998   0.24969   0.99999   1.000
    N63     N    0.74999   0.24968   0.49997   1.000
    N64     N    0.74999   0.75034   0.99999   1.000
    N65     N    0.50000   0.75000   0.74999   1.000
    O66     O    0.58672   0.74989   0.74999   1.000
loop_
    _geom_bond_atom_site_label_1
    _geom_bond_atom_site_label_2
    _geom_bond_distance
    _geom_bond_site_symmetry_2
    _ccdc_geom_bond_type
    Zr8    O13       1.04310      .   S
    Zr2    O13       1.04310      .   S
    Zr2    O14       0.92613      .   S
    Zr10   O14       0.92613      .   S
    N15    O16       1.24190      .   S
    Zr0    O16       2.33105      .   S
    N15    O17       1.24070      .   S
    Zr2    O17       2.32770      .   S
    N19    O20       1.24112      .   S
    Zr4    O20       2.32901      .   S
    N19    O21       1.24109      .   S
    Zr6    O21       2.32889      .   S
    N22    O23       1.24111      .   S
    Zr5    O23       2.32896      .   S
    N22    O24       1.24110      .   S
    Zr7    O24       2.32892      .   S
    N25    O26       1.24503  1_545   S
    Zr6    O26       2.33785      .   S
    N25    O27       1.25388      .   S
    Zr4    O27       2.34901      .   S
    N28    O29       1.24445  1_545   S
    Zr7    O29       2.33753      .   S
    N28    O30       1.24444      .   S
    Zr5    O30       2.33750      .   S
    N31    O32       1.24491  1_545   S
    Zr2    O32       2.33898      .   S
    N31    O33       1.24361      .   S
    Zr0    O33       2.33520      .   S
    N34    O35       1.24429      .   S
    Zr1    O35       2.33717      .   S
    N36    O37       1.24126      .   S
    Zr1    O37       2.32924      .   S
    N38    O39       1.25042      .   S
    Zr0    O39       2.35406      .   S
    N38    O40       1.25046  1_455   S
    Zr4    O40       2.35425      .   S
    N41    O42       1.25042      .   S
    Zr1    O42       2.35405      .   S
    N41    O43       1.25046  1_455   S
    Zr5    O43       2.35425      .   S
    N44    O45       1.25042      .   S
    Zr2    O45       2.35411      .   S
    N44    O46       1.25045  1_455   S
    Zr6    O46       2.35422      .   S
    N47    O48       1.25044      .   S
    Zr7    O48       2.35418      .   S
    N49    O50       1.25033      .   S
    Zr4    O50       2.35403      .   S
    N49    O51       1.25038      .   S
    Zr0    O51       2.35408      .   S
    N52    O53       1.25034      .   S
    Zr5    O53       2.35406      .   S
    N52    O54       1.25037      .   S
    Zr1    O54       2.35406      .   S
    N55    O56       1.25035      .   S
    Zr6    O56       2.35408      .   S
    N59    O60       0.52077      .   S
    Zr3    O60       0.90630      .   S
    N65    O66       1.25034      .   S
    Zr7    O66       2.35406      .   S
