# CIF file generated by openbabel 2.4.90, see http://openbabel.sf.net
data_I
_chemical_name_common ''
_cell_length_a 14.418
_cell_length_b 14.304
_cell_length_c 15.436
_cell_angle_alpha 89.978
_cell_angle_beta 90
_cell_angle_gamma 89.985
_space_group_name_H-M_alt 'P 1'
_space_group_name_Hall 'P 1'
loop_
    _symmetry_equiv_pos_as_xyz
    x,y,z
loop_
    _atom_site_label
    _atom_site_type_symbol
    _atom_site_fract_x
    _atom_site_fract_y
    _atom_site_fract_z
    _atom_site_occupancy
    N0      N    0.24997   0.50046   0.25041   1.000
    N1      N    0.74999   0.75034   0.49998   1.000
    N2      N    0.74994   0.50001   0.24997   1.000
    N3      N    0.74993   0.50001   0.74998   1.000
    N4      N    0.74998   0.00001   0.24498   1.000
    N5      N    0.74997   0.00001   0.74996   1.000
    N6      N    0.25012   0.00048   0.24955   1.000
    N7      N    0.25011   0.00015   0.75012   1.000
    N8      N    0.24996   0.50015   0.74984   1.000
    N9      N    0.00000   0.25026   0.24995   1.000
    N10     N    0.00000   0.25012   0.74999   1.000
    N11     N    0.00000   0.74996   0.25001   1.000
    N12     N    1.00000   0.74988   0.74994   1.000
    N13     N    0.50000   0.25031   0.24999   1.000
    N14     N    0.50000   0.25017   0.74994   1.000
    N15     N    0.50000   0.75007   0.25001   1.000
    N16     N    0.25000   0.25102   0.99997   1.000
    N17     N    0.24999   0.24969   0.49996   1.000
    N18     N    0.25000   0.74992   0.84250   1.000
    N19     N    0.25000   0.75102   0.49999   1.000
    N20     N    0.74998   0.24969   0.99999   1.000
    N21     N    0.74999   0.24968   0.49997   1.000
    N22     N    0.74999   0.75034   0.99999   1.000
    N23     N    0.50000   0.75000   0.74999   1.000
    Zr24    Zr   0.25000   0.25053   0.74985   1.000
    O25     O    0.33164   0.25040   0.74989   1.000
    O26     O    0.24998   0.33195   0.74985   1.000
    O27     O    0.25005   0.16884   0.74995   1.000
    O28     O    0.16837   0.25038   0.74990   1.000
    Zr29    Zr   0.22247   0.72202   0.18835   1.000
    O30     O    0.23626   0.81774   0.21902   1.000
    O31     O    0.15460   0.73601   0.21920   1.000
    O32     O    0.23623   0.65461   0.21935   1.000
    Zr33    Zr   0.25000   0.74967   0.75005   1.000
    O34     O    0.25000   0.74984   0.77941   1.000
    Zr35    Zr   0.74999   0.25042   0.25000   1.000
    O36     O    0.66835   0.25036   0.25000   1.000
    O37     O    0.83163   0.25035   0.24998   1.000
    O38     O    0.74999   0.16872   0.24250   1.000
    O39     O    0.74997   0.33183   0.24998   1.000
    Zr40    Zr   0.74999   0.25043   0.74999   1.000
    O41     O    0.66835   0.25032   0.74997   1.000
    O42     O    0.83163   0.25032   0.74999   1.000
    O43     O    0.74999   0.16872   0.74998   1.000
    O44     O    0.74997   0.33183   0.74999   1.000
    Zr45    Zr   0.74999   0.74959   0.24997   1.000
    O46     O    0.83163   0.74971   0.24998   1.000
    O47     O    0.74998   0.83130   0.24871   1.000
    O48     O    0.74998   0.66818   0.24997   1.000
    O49     O    0.66835   0.74976   0.24998   1.000
    Zr50    Zr   0.74999   0.74959   0.74997   1.000
    O51     O    0.74997   0.66818   0.74997   1.000
    O52     O    0.83163   0.74969   0.74996   1.000
    O53     O    0.74998   0.83130   0.74997   1.000
    O54     O    0.66835   0.74974   0.74998   1.000
    Zr55    Zr   0.25000   0.25067   0.24996   1.000
    O56     O    0.25005   0.16905   0.24980   1.000
    O57     O    0.33164   0.25055   0.24997   1.000
    O58     O    0.16837   0.25053   0.24996   1.000
    O59     O    0.24998   0.33216   0.25013   1.000
    Zr60    Zr   0.33230   0.83479   0.99999   1.000
    Zr61    Zr   0.16769   0.83479   0.99999   1.000
    Zr62    Zr   0.33262   0.66683   0.99998   1.000
loop_
    _geom_bond_atom_site_label_1
    _geom_bond_atom_site_label_2
    _geom_bond_distance
    _geom_bond_site_symmetry_2
    _ccdc_geom_bond_type
    Zr24   O25       1.17703      .   S
    N14    O25       2.42740      .   S
    Zr24   O26       1.16462      .   S
    N8     O26       2.40588      .   S
    Zr24   O27       1.16858      .   S
    N7     O27       2.41288      .   S
    Zr24   O28       1.17702      .   S
    N10    O28       2.42744      .   S
    Zr29   O30       1.46243      .   S
    N6     O30       2.66381  1_545   S
    Zr29   O31       1.10645      .   S
    N11    O31       2.28784      .   S
    Zr29   O32       1.09440      .   S
    N0     O32       2.26496      .   S
    Zr33   O34       0.45315      .   S
    N18    O34       0.97392      .   S
    Zr35   O36       1.17701      .   S
    N13    O36       2.42734      .   S
    Zr35   O37       1.17712      .   S
    N9     O37       2.42759  1_455   S
    Zr35   O38       1.17450      .   S
    N4     O38       2.41345      .   S
    Zr35   O39       1.16451      .   S
    N2     O39       2.40563      .   S
    Zr40   O41       1.17703      .   S
    N14    O41       2.42737      .   S
    Zr40   O42       1.17712      .   S
    N10    O42       2.42759  1_455   S
    Zr40   O43       1.16875      .   S
    N5     O43       2.41319      .   S
    Zr40   O44       1.16448      .   S
    N3     O44       2.40559      .   S
    Zr45   O46       1.17711      .   S
    N11    O46       2.42756  1_455   S
    Zr45   O47       1.16893      .   S
    N4     O47       2.41389  1_545   S
    Zr45   O48       1.16445      .   S
    N2     O48       2.40553      .   S
    Zr45   O49       1.17704      .   S
    N15    O49       2.42739      .   S
    Zr50   O51       1.16446      .   S
    N3     O51       2.40556      .   S
    Zr50   O52       1.17709      .   S
    N12    O52       2.42753      .   S
    Zr50   O53       1.16876      .   S
    N5     O53       2.41321  1_545   S
    Zr50   O54       1.17703      .   S
    N23    O54       2.42737      .   S
    Zr55   O56       1.16760      .   S
    N6     O56       2.41121      .   S
    Zr55   O57       1.17704      .   S
    N13    O57       2.42742      .   S
    Zr55   O58       1.17703      .   S
    N9     O58       2.42745      .   S
    Zr55   O59       1.16553      .   S
    N0     O59       2.40742      .   S
