# CIF file generated by openbabel 2.4.90, see http://openbabel.sf.net
data_I
_chemical_name_common ''
_cell_length_a 7.777
_cell_length_b 10.178
_cell_length_c 13.43
_cell_angle_alpha 68.03
_cell_angle_beta 85.139
_cell_angle_gamma 75.683
_space_group_name_H-M_alt 'P 1'
_space_group_name_Hall 'P 1'
loop_
    _symmetry_equiv_pos_as_xyz
    x,y,z
loop_
    _atom_site_label
    _atom_site_type_symbol
    _atom_site_fract_x
    _atom_site_fract_y
    _atom_site_fract_z
    _atom_site_occupancy
    H0      H    0.39657   0.78986   0.04129   1.000
    H1      H    0.44452   0.84393   0.84696   1.000
    H2      H    0.15597   0.28681   0.77798   1.000
    H3      H    0.09489   0.23181   0.97153   1.000
    H4      H    0.60343   0.21018   0.95871   1.000
    H5      H    0.55548   0.15610   0.15304   1.000
    H6      H    0.84401   0.71323   0.22202   1.000
    H7      H    0.90510   0.76822   0.02847   1.000
    C8      C    0.23967   0.00601   0.02147   1.000
    C9      C    0.33875   0.89807   0.98402   1.000
    C10     C    0.36853   0.92824   0.87520   1.000
    C11     C    0.30304   0.06853   0.79988   1.000
    C12     C    0.20689   0.17777   0.83623   1.000
    C13     C    0.17466   0.14645   0.94534   1.000
    C14     C    0.76030   0.99401   0.97852   1.000
    C15     C    0.66124   0.10195   0.01598   1.000
    C16     C    0.63146   0.07179   0.12480   1.000
    C17     C    0.69694   0.93151   0.20012   1.000
    C18     C    0.79310   0.82226   0.16377   1.000
    C19     C    0.82532   0.85358   0.05466   1.000
loop_
    _geom_bond_atom_site_label_1
    _geom_bond_atom_site_label_2
    _geom_bond_distance
    _geom_bond_site_symmetry_2
    _ccdc_geom_bond_type
    C15    C16       1.38774      .   S
    C15    H4        1.08937  1_554   S
    C15    C14       1.40814  1_544   S
    C8     C13       1.40740  1_554   S
    C8     C9        1.40814  1_544   S
    H7     C19       1.09016      .   S
    H0     C9        1.08936  1_554   S
    C19    C18       1.39259      .   S
    C19    C14       1.40738  1_554   S
    C16    H5        1.08809      .   S
    C16    C17       1.40288  1_545   S
    C18    C17       1.40253      .   S
    C18    H6        1.08901      .   S
    H2     C12       1.08902      .   S
    C11    C12       1.40251      .   S
    C11    C10       1.40298  1_545   S
    C12    C13       1.39260      .   S
    H1     C10       1.08810      .   S
    C10    C9        1.38774      .   S
    C13    H3        1.09015      .   S
