# CIF file generated by openbabel 2.4.90, see http://openbabel.sf.net
data_I
_chemical_name_common ''
_cell_length_a 7.777
_cell_length_b 10.178
_cell_length_c 13.43
_cell_angle_alpha 68.03
_cell_angle_beta 85.139
_cell_angle_gamma 75.683
_space_group_name_H-M_alt 'P 1'
_space_group_name_Hall 'P 1'
loop_
    _symmetry_equiv_pos_as_xyz
    x,y,z
loop_
    _atom_site_label
    _atom_site_type_symbol
    _atom_site_fract_x
    _atom_site_fract_y
    _atom_site_fract_z
    _atom_site_occupancy
    H0      H    0.15143   0.86503   0.44868   1.000
    H1      H    0.22053   0.74212   0.17290   1.000
    H2      H    0.18389   0.18878   0.13583   1.000
    H3      H    0.84855   0.13498   0.55131   1.000
    H4      H    0.77945   0.25791   0.82709   1.000
    H5      H    0.81609   0.81124   0.86417   1.000
    C6      C    0.16599   0.03810   0.29607   1.000
    C7      C    0.16665   0.89419   0.36233   1.000
    C8      C    0.18461   0.78869   0.31657   1.000
    C9      C    0.20723   0.82695   0.20567   1.000
    C10     C    0.20860   0.97034   0.13794   1.000
    C11     C    0.18353   0.07601   0.18474   1.000
    C12     C    0.83399   0.96192   0.70394   1.000
    C13     C    0.83332   0.10583   0.63767   1.000
    C14     C    0.81536   0.21133   0.68342   1.000
    C15     C    0.79274   0.17307   0.79432   1.000
    C16     C    0.79137   0.02969   0.86206   1.000
    C17     C    0.81644   0.92401   0.81526   1.000
loop_
    _geom_bond_atom_site_label_1
    _geom_bond_atom_site_label_2
    _geom_bond_distance
    _geom_bond_site_symmetry_2
    _ccdc_geom_bond_type
    H2     C11       1.08901      .   S
    C10    C11       1.40402  1_565   S
    C10    C9        1.40360      .   S
    H1     C9        1.08739      .   S
    C11    C6        1.40093      .   S
    C9     C8        1.39869      .   S
    C6     C7        1.39966  1_545   S
    C8     C7        1.39830      .   S
    C7     H0        1.08800      .   S
    H3     C13       1.08799      .   S
    C13    C14       1.39831      .   S
    C13    C12       1.39973  1_545   S
    C14    C15       1.39868      .   S
    C12    C17       1.40092      .   S
    C15    H4        1.08741      .   S
    C15    C16       1.40357      .   S
    C17    C16       1.40401  1_565   S
    C17    H5        1.08902      .   S
