# CIF file generated by openbabel 2.4.90, see http://openbabel.sf.net
data_I
_chemical_name_common ''
_cell_length_a 7.777
_cell_length_b 10.178
_cell_length_c 13.43
_cell_angle_alpha 68.03
_cell_angle_beta 85.139
_cell_angle_gamma 75.683
_space_group_name_H-M_alt 'P 1'
_space_group_name_Hall 'P 1'
loop_
    _symmetry_equiv_pos_as_xyz
    x,y,z
loop_
    _atom_site_label
    _atom_site_type_symbol
    _atom_site_fract_x
    _atom_site_fract_y
    _atom_site_fract_z
    _atom_site_occupancy
    C0      C    0.15155   0.15141   0.34346   1.000
    C1      C    0.17624   0.63582   0.38428   1.000
    C2      C    0.33536   0.09942   0.68285   1.000
    C3      C    0.84844   0.84859   0.65655   1.000
    C4      C    0.82373   0.36419   0.61570   1.000
    C5      C    0.66463   0.90062   0.31714   1.000
    O6      O    0.08832   0.28356   0.29193   1.000
    O7      O    0.20742   0.10731   0.44317   1.000
    O8      O    0.13116   0.60315   0.48297   1.000
    O9      O    0.21542   0.54105   0.33986   1.000
    O10     O    0.42023   0.98870   0.65952   1.000
    O11     O    0.28164   0.22826   0.61645   1.000
    O12     O    0.91167   0.71644   0.70809   1.000
    O13     O    0.79257   0.89269   0.55684   1.000
    O14     O    0.86879   0.39687   0.51702   1.000
    O15     O    0.78456   0.45897   0.66013   1.000
    O16     O    0.57978   0.01136   0.34047   1.000
    O17     O    0.71833   0.77179   0.38355   1.000
loop_
    _geom_bond_atom_site_label_1
    _geom_bond_atom_site_label_2
    _geom_bond_distance
    _geom_bond_site_symmetry_2
    _ccdc_geom_bond_type
    O6     C0        1.25057      .   S
    C5     O16       1.29039  1_565   S
    C5     O17       1.26751      .   S
    O9     C1        1.27813      .   S
    C0     O7        1.31758      .   S
    C1     O8        1.28027      .   S
    O14    C4        1.28025      .   S
    O13    C3        1.31759      .   S
    C4     O15       1.27814      .   S
    O11    C2        1.26751      .   S
    C3     O12       1.25055      .   S
    O10    C2        1.29039  1_565   S
