# CIF file generated by openbabel 2.4.90, see http://openbabel.sf.net
data_I
_chemical_name_common ''
_cell_length_a 7.777
_cell_length_b 10.178
_cell_length_c 13.43
_cell_angle_alpha 68.03
_cell_angle_beta 85.139
_cell_angle_gamma 75.683
_space_group_name_H-M_alt 'P 1'
_space_group_name_Hall 'P 1'
loop_
    _symmetry_equiv_pos_as_xyz
    x,y,z
loop_
    _atom_site_label
    _atom_site_type_symbol
    _atom_site_fract_x
    _atom_site_fract_y
    _atom_site_fract_z
    _atom_site_occupancy
    C0      C    0.15155   0.15141   0.34346   1.000
    C1      C    0.17624   0.63582   0.38428   1.000
    C2      C    0.33536   0.09942   0.68285   1.000
    C3      C    0.84844   0.84859   0.65655   1.000
    C4      C    0.82373   0.36419   0.61570   1.000
    C5      C    0.66463   0.90062   0.31714   1.000
