# CIF file generated by openbabel 2.4.90, see http://openbabel.sf.net
data_I
_chemical_name_common ''
_cell_length_a 7.777
_cell_length_b 10.178
_cell_length_c 13.43
_cell_angle_alpha 68.03
_cell_angle_beta 85.139
_cell_angle_gamma 75.683
_space_group_name_H-M_alt 'P 1'
_space_group_name_Hall 'P 1'
loop_
    _symmetry_equiv_pos_as_xyz
    x,y,z
loop_
    _atom_site_label
    _atom_site_type_symbol
    _atom_site_fract_x
    _atom_site_fract_y
    _atom_site_fract_z
    _atom_site_occupancy
    Zr0     Zr   0.14183   0.33939   0.45272   1.000
    Zr1     Zr   0.85814   0.66063   0.54728   1.000
    Zr2     Zr   0.49999   0.00001   0.50000   1.000
    N3      N    0.81415   0.06777   0.74881   1.000
    N4      N    0.18583   0.93224   0.25119   1.000
    C5      C    0.65425   0.89459   0.34705   1.000
    O6      O    0.72124   0.80540   0.40624   1.000
    O7      O    0.59707   0.95014   0.38364   1.000
    O8      O    0.67923   0.91688   0.26069   1.000
    C9      C    0.85089   0.81924   0.64049   1.000
    O10     O    0.74859   0.88279   0.58446   1.000
    O11     O    0.83929   0.90288   0.67751   1.000
    C12     C    0.82569   0.40668   0.59762   1.000
    O13     O    0.82127   0.29222   0.64840   1.000
    O14     O    0.82352   0.48324   0.60066   1.000
    O15     O    0.91550   0.38740   0.54124   1.000
    C16     C    0.14910   0.18076   0.35952   1.000
    O17     O    0.25140   0.11721   0.41555   1.000
    O18     O    0.16070   0.09713   0.32250   1.000
    C19     C    0.34574   0.10546   0.65294   1.000
    O20     O    0.27874   0.19464   0.59376   1.000
    O21     O    0.40293   0.04991   0.61635   1.000
    O22     O    0.32076   0.08316   0.73931   1.000
    C23     C    0.17427   0.59334   0.40237   1.000
    O24     O    0.17645   0.51678   0.39933   1.000
    O25     O    0.08446   0.61262   0.45875   1.000
    O26     O    0.17870   0.70780   0.35159   1.000
    O27     O    0.85301   0.77592   0.61518   1.000
    O28     O    0.14697   0.22409   0.38483   1.000
loop_
    _geom_bond_atom_site_label_1
    _geom_bond_atom_site_label_2
    _geom_bond_distance
    _geom_bond_site_symmetry_2
    _ccdc_geom_bond_type
    C5     O6        1.01175      .   S
    Zr1    O6        2.09052      .   S
    C5     O7        0.89741      .   S
    Zr2    O7        1.86374  1_545   S
    C5     O8        1.10512      .   S
    N3     O8        7.47857  1_545   S
    C9     O10       1.04907      .   S
    Zr2    O10       2.16009  1_545   S
    C9     O11       1.11846      .   S
    N3     O11       2.18638  1_545   S
    C12    O13       1.11567      .   S
    N3     O13       2.18747      .   S
    C12    O14       0.79145      .   S
    Zr1    O14       1.75654      .   S
    C12    O15       1.02628      .   S
    Zr0    O15       2.09884  1_455   S
    C16    O17       1.04901      .   S
    Zr2    O17       2.15999      .   S
    C16    O18       1.11847      .   S
    N4     O18       2.18638  1_565   S
    C19    O20       1.01173      .   S
    Zr0    O20       2.09049      .   S
    C19    O21       0.89748      .   S
    Zr2    O21       1.86384      .   S
    C19    O22       1.10513      .   S
    N4     O22       7.47873  1_565   S
    C23    O24       0.79140      .   S
    Zr0    O24       1.75651      .   S
    C23    O25       1.02632      .   S
    Zr1    O25       2.09888  1_655   S
    C23    O26       1.11567      .   S
    N4     O26       2.18747      .   S
    Zr1    O27       1.72667      .   S
    C9     O27       0.64640      .   S
    Zr0    O28       1.72668      .   S
    C16    O28       0.64640      .   S
