# CIF file generated by openbabel 2.4.90, see http://openbabel.sf.net
data_I
_chemical_name_common ''
_cell_length_a 20.752
_cell_length_b 20.667
_cell_length_c 14.043
_cell_angle_alpha 89.845
_cell_angle_beta 89.931
_cell_angle_gamma 89.747
_space_group_name_H-M_alt 'P 1'
_space_group_name_Hall 'P 1'
loop_
    _symmetry_equiv_pos_as_xyz
    x,y,z
loop_
    _atom_site_label
    _atom_site_type_symbol
    _atom_site_fract_x
    _atom_site_fract_y
    _atom_site_fract_z
    _atom_site_occupancy
    H0      H    0.26501   0.03529   0.39583   1.000
    H1      H    0.26501   0.53528   0.39583   1.000
    H2      H    0.76501   0.03529   0.39583   1.000
    H3      H    0.76501   0.53528   0.39583   1.000
    H4      H    0.23478   0.46573   0.89530   1.000
    H5      H    0.23478   0.96572   0.89530   1.000
    H6      H    0.73477   0.46573   0.89530   1.000
    H7      H    0.73477   0.96572   0.89530   1.000
    H8      H    0.46161   0.26393   0.64453   1.000
    H9      H    0.46161   0.76392   0.64453   1.000
    H10     H    0.96161   0.26393   0.64453   1.000
    H11     H    0.96160   0.76392   0.64453   1.000
    H12     H    0.03714   0.23593   0.14336   1.000
    H13     H    0.03714   0.73592   0.14336   1.000
    H14     H    0.53714   0.23593   0.14336   1.000
    H15     H    0.53714   0.73592   0.14336   1.000
    H16     H    0.23477   0.03837   0.60716   1.000
    H17     H    0.23477   0.53836   0.60716   1.000
    H18     H    0.73477   0.03837   0.60716   1.000
    H19     H    0.73476   0.53836   0.60716   1.000
    H20     H    0.26585   0.46510   0.10690   1.000
    H21     H    0.26585   0.96509   0.10690   1.000
    H22     H    0.76584   0.46510   0.10690   1.000
    H23     H    0.76584   0.96509   0.10690   1.000
    H24     H    0.03518   0.26498   0.35737   1.000
    H25     H    0.03518   0.76497   0.35737   1.000
    H26     H    0.53518   0.26498   0.35737   1.000
    H27     H    0.53517   0.76497   0.35737   1.000
    H28     H    0.46473   0.23744   0.85576   1.000
    H29     H    0.46473   0.73743   0.85576   1.000
    H30     H    0.96472   0.23744   0.85576   1.000
    H31     H    0.96472   0.73743   0.85576   1.000
    H32     H    0.44477   0.00042   0.25161   1.000
    H33     H    0.44477   0.50041   0.25161   1.000
    H34     H    0.94476   0.00042   0.25161   1.000
    H35     H    0.94476   0.50041   0.25161   1.000
    H36     H    0.05544   0.00019   0.75010   1.000
    H37     H    0.05544   0.50018   0.75010   1.000
    H38     H    0.55543   0.00019   0.75016   1.000
    H39     H    0.55543   0.50018   0.75010   1.000
    H40     H    0.00070   0.44473   0.50317   1.000
    H41     H    0.00070   0.94473   0.50317   1.000
    H42     H    0.50070   0.44473   0.50317   1.000
    H43     H    0.50069   0.94473   0.50317   1.000
    H44     H    0.00146   0.05642   0.99850   1.000
    H45     H    0.00000   0.55641   0.99852   1.000
    H46     H    0.50145   0.05642   0.99851   1.000
    H47     H    0.50145   0.55641   0.99851   1.000
    C48     C    0.29176   0.02000   0.33296   1.000
    C49     C    0.29176   0.51999   0.33296   1.000
    C50     C    0.79175   0.02000   0.33296   1.000
    C51     C    0.79175   0.51999   0.33296   1.000
    C52     C    0.35923   0.01954   0.33320   1.000
    C53     C    0.35923   0.51953   0.33320   1.000
    C54     C    0.85922   0.01954   0.33328   1.000
    C55     C    0.85922   0.51953   0.33320   1.000
    C56     C    0.20825   0.48136   0.83239   1.000
    C57     C    0.20825   0.98135   0.83200   1.000
    C58     C    0.70824   0.48136   0.83239   1.000
    C59     C    0.70824   0.98135   0.83200   1.000
    C60     C    0.14080   0.48139   0.83234   1.000
    C61     C    0.14080   0.98138   0.83234   1.000
    C62     C    0.64080   0.48139   0.83234   1.000
    C63     C    0.64079   0.98138   0.83234   1.000
    C64     C    0.47788   0.29071   0.58214   1.000
    C65     C    0.47788   0.79070   0.58214   1.000
    C66     C    0.97788   0.29071   0.58214   1.000
    C67     C    0.97787   0.79070   0.58214   1.000
    C68     C    0.47945   0.35849   0.58344   1.000
    C69     C    0.47944   0.85848   0.58344   1.000
    C70     C    0.97944   0.35849   0.58344   1.000
    C71     C    0.97944   0.85848   0.58344   1.000
    C72     C    0.50092   0.74381   0.99960   1.000
    C73     C    0.02137   0.20971   0.08045   1.000
    C74     C    0.02137   0.70971   0.08045   1.000
    C75     C    0.52136   0.20971   0.08045   1.000
    C76     C    0.52136   0.70971   0.08045   1.000
    C77     C    0.02077   0.14196   0.08051   1.000
    C78     C    0.02076   0.64196   0.08051   1.000
    C79     C    0.52076   0.14196   0.08051   1.000
    C80     C    0.52076   0.64196   0.08051   1.000
    C81     C    0.20827   0.02230   0.66983   1.000
    C82     C    0.20827   0.52229   0.66983   1.000
    C83     C    0.70826   0.02230   0.66983   1.000
    C84     C    0.70826   0.52229   0.66983   1.000
    C85     C    0.14080   0.02097   0.66918   1.000
    C86     C    0.14080   0.52096   0.66918   1.000
    C87     C    0.64080   0.02097   0.66918   1.000
    C88     C    0.64079   0.52096   0.66918   1.000
    C89     C    0.29221   0.48048   0.16986   1.000
    C90     C    0.29221   0.98047   0.16986   1.000
    C91     C    0.79221   0.48048   0.16986   1.000
    C92     C    0.79221   0.98047   0.16986   1.000
    C93     C    0.35968   0.48123   0.16972   1.000
    C94     C    0.35968   0.98122   0.16972   1.000
    C95     C    0.85968   0.48123   0.16972   1.000
    C96     C    0.85968   0.98122   0.16972   1.000
    C97     C    0.01930   0.29130   0.42031   1.000
    C98     C    0.01930   0.79130   0.42031   1.000
    C99     C    0.51929   0.29130   0.42031   1.000
    C100    C    0.51929   0.79130   0.42031   1.000
    C101    C    0.01930   0.35905   0.42060   1.000
    C102    C    0.01930   0.85905   0.42060   1.000
    C103    C    0.51930   0.35905   0.42060   1.000
    C104    C    0.51930   0.85905   0.42060   1.000
    C105    C    0.48063   0.21055   0.91833   1.000
    C106    C    0.48063   0.71054   0.91833   1.000
    C107    C    0.98062   0.21055   0.91833   1.000
    C108    C    0.98062   0.71054   0.91833   1.000
    C109    C    0.48159   0.14276   0.91750   1.000
    C110    C    0.48159   0.64275   0.91750   1.000
    C111    C    0.98158   0.14276   0.91750   1.000
    C112    C    0.98157   0.64275   0.91750   1.000
    C113    C    0.25847   0.00014   0.25140   1.000
    C114    C    0.25847   0.50013   0.25140   1.000
    C115    C    0.75846   0.00014   0.25140   1.000
    C116    C    0.75846   0.50013   0.25140   1.000
    C117    C    0.39248   0.00041   0.25156   1.000
    C118    C    0.39248   0.50040   0.25156   1.000
    C119    C    0.89248   0.00041   0.25156   1.000
    C120    C    0.89248   0.50040   0.25156   1.000
    C121    C    0.24176   0.00210   0.75128   1.000
    C122    C    0.24175   0.50209   0.75128   1.000
    C123    C    0.74175   0.00210   0.75128   1.000
    C124    C    0.74175   0.50209   0.75128   1.000
    C125    C    0.10772   0.00080   0.75054   1.000
    C126    C    0.10772   0.50080   0.75050   1.000
    C127    C    0.60771   0.00080   0.75054   1.000
    C128    C    0.60771   0.50080   0.75054   1.000
    C129    C    0.99830   0.25732   0.50085   1.000
    C130    C    0.99830   0.75731   0.50080   1.000
    C131    C    0.49829   0.25732   0.50086   1.000
    C132    C    0.49829   0.75732   0.50085   1.000
    C133    C    0.99982   0.39219   0.50247   1.000
    C134    C    0.99982   0.89219   0.50240   1.000
    C135    C    0.49981   0.39219   0.50247   1.000
    C136    C    0.49981   0.89219   0.50247   1.000
    C137    C    0.00093   0.24382   0.99960   1.000
    C138    C    0.00092   0.74381   0.99960   1.000
    C139    C    0.50092   0.24382   0.99960   1.000
    C140    C    0.00125   0.10897   0.99880   1.000
    C141    C    0.00125   0.60896   0.99881   1.000
    C142    C    0.50125   0.10897   0.99881   1.000
    C143    C    0.50125   0.60896   0.99881   1.000
loop_
    _geom_bond_atom_site_label_1
    _geom_bond_atom_site_label_2
    _geom_bond_distance
    _geom_bond_site_symmetry_2
    _ccdc_geom_bond_type
    C73    C77       1.40030      .   S
    C73    H12       1.08904      .   S
    C73    C137      1.39997  1_554   S
    C76    C80       1.40030      .   S
    C76    H15       1.08904      .   S
    C76    C72       1.39998  1_554   S
    C75    C79       1.40030      .   S
    C75    H14       1.08905      .   S
    C75    C139      1.39998  1_554   S
    C74    C78       1.40030      .   S
    C74    H13       1.08904      .   S
    C74    C138      1.40000  1_554   S
    C80    C143      1.39755  1_554   S
    C79    C142      1.39755  1_554   S
    C78    C141      1.39753  1_554   S
    C77    C140      1.39767  1_554   S
    H22    C91       1.08920      .   S
    H23    C92       1.08920      .   S
    H21    C90       1.08919      .   S
    H20    C89       1.08919      .   S
    C93    C89       1.40031      .   S
    C93    C118      1.39569      .   S
    C94    C90       1.40031      .   S
    C94    C117      1.39578  1_565   S
    C95    C91       1.40031      .   S
    C95    C120      1.39569      .   S
    C96    C92       1.40029      .   S
    C96    C119      1.39579  1_565   S
    C89    C114      1.40161      .   S
    C92    C115      1.40171  1_565   S
    C91    C116      1.40161      .   S
    C90    C113      1.40171  1_565   S
    C114   C49       1.40156      .   S
    C113   C48       1.40156      .   S
    C115   C50       1.40155      .   S
    C116   C51       1.40156      .   S
    C120   H35       1.08508      .   S
    C120   C55       1.39462      .   S
    C119   H34       1.08508      .   S
    C119   C54       1.39556      .   S
    C117   H32       1.08508      .   S
    C117   C52       1.39463      .   S
    C118   H33       1.08508      .   S
    C118   C53       1.39461      .   S
    C50    C54       1.40018      .   S
    C50    H2        1.08913      .   S
    C51    C55       1.40018      .   S
    C51    H3        1.08912      .   S
    C49    C53       1.40018      .   S
    C49    H1        1.08912      .   S
    C48    C52       1.40018      .   S
    C48    H0        1.08913      .   S
    H25    C98       1.08911      .   S
    H24    C97       1.08910      .   S
    H26    C99       1.08911      .   S
    H27    C100      1.08910      .   S
    C100   C104      1.40019      .   S
    C100   C132      1.39985      .   S
    C99    C103      1.40019      .   S
    C99    C131      1.39996      .   S
    C98    C102      1.40021      .   S
    C98    C130      1.39927  1_455   S
    C97    C101      1.40021      .   S
    C97    C129      1.39985  1_455   S
    C101   C133      1.39824  1_455   S
    C102   C134      1.39744  1_455   S
    C103   C135      1.39824      .   S
    C104   C136      1.39824      .   S
    C130   C67       1.40033      .   S
    C132   C65       1.39965      .   S
    C129   C66       1.39975      .   S
    C131   C64       1.39955      .   S
    C134   H41       1.08616  1_655   S
    C134   C71       1.39869      .   S
    C136   H43       1.08615      .   S
    C136   C69       1.39780      .   S
    C133   H40       1.08615  1_655   S
    C133   C70       1.39789      .   S
    C135   H42       1.08615      .   S
    C135   C68       1.39779      .   S
    C67    C71       1.40156      .   S
    C67    H11       1.08913      .   S
    C66    C70       1.40156      .   S
    C66    H10       1.08914      .   S
    C65    C69       1.40158      .   S
    C65    H9        1.08914      .   S
    C64    C68       1.40156      .   S
    C64    H8        1.08913      .   S
    H19    C84       1.08918      .   S
    H18    C83       1.08918      .   S
    H17    C82       1.08919      .   S
    H16    C81       1.08918      .   S
    C85    C81       1.40047      .   S
    C85    C125      1.39589      .   S
    C86    C82       1.40046      .   S
    C86    C126      1.39545      .   S
    C87    C83       1.40046      .   S
    C87    C127      1.39591      .   S
    C88    C84       1.40044      .   S
    C88    C128      1.39591      .   S
    C81    C121      1.40083      .   S
    C83    C123      1.40082      .   S
    C84    C124      1.40084      .   S
    C82    C122      1.40082      .   S
    H36    C125      1.08505      .   S
    H39    C128      1.08505      .   S
    H37    C126      1.08505      .   S
    H38    C127      1.08504      .   S
    C126   C60       1.39648      .   S
    C128   C62       1.39602      .   S
    C127   C63       1.39608  1_545   S
    C125   C61       1.39610  1_545   S
    C124   C58       1.40087      .   S
    C123   C59       1.39653  1_545   S
    C122   C56       1.40087      .   S
    C121   C57       1.39652  1_545   S
    C59    C63       1.39970      .   S
    C59    H7        1.09349      .   S
    C57    C61       1.39970      .   S
    C57    H5        1.09348      .   S
    C62    C58       1.39970      .   S
    C60    C56       1.39970      .   S
    C58    H6        1.08904      .   S
    C56    H4        1.08904      .   S
    H28    C105      1.08921      .   S
    H29    C106      1.08921      .   S
    H30    C107      1.08922      .   S
    H31    C108      1.08922      .   S
    C112   C108      1.40109      .   S
    C112   C141      1.39737  1_655   S
    C111   C107      1.40109      .   S
    C111   C140      1.39723  1_655   S
    C110   C106      1.40109      .   S
    C110   C143      1.39726      .   S
    C109   C105      1.40111      .   S
    C109   C142      1.39725      .   S
    C105   C139      1.40020      .   S
    C106   C72       1.40021      .   S
    C107   C137      1.40030  1_655   S
    C108   C138      1.40027  1_655   S
    H44    C140      1.08604      .   S
    H47    C143      1.08604      .   S
    H46    C142      1.08604      .   S
    H45    C141      1.08647      .   S
