# CIF file generated by openbabel 2.4.90, see http://openbabel.sf.net
data_I
_chemical_name_common ''
_cell_length_a 20.752
_cell_length_b 20.667
_cell_length_c 14.043
_cell_angle_alpha 89.845
_cell_angle_beta 89.931
_cell_angle_gamma 89.747
_space_group_name_H-M_alt 'P 1'
_space_group_name_Hall 'P 1'
loop_
    _symmetry_equiv_pos_as_xyz
    x,y,z
loop_
    _atom_site_label
    _atom_site_type_symbol
    _atom_site_fract_x
    _atom_site_fract_y
    _atom_site_fract_z
    _atom_site_occupancy
    Y0      Y    0.43775   0.56226   0.62802   1.000
    Y1      Y    0.93775   0.06227   0.62802   1.000
    Y2      Y    0.93775   0.56226   0.62802   1.000
    Y3      Y    0.06324   0.43769   0.12761   1.000
    Y4      Y    0.06324   0.93768   0.12761   1.000
    Y5      Y    0.56323   0.43769   0.12761   1.000
    Y6      Y    0.56323   0.93768   0.12761   1.000
    Y7      Y    0.43814   0.43919   0.87314   1.000
    Y8      Y    0.43814   0.93919   0.87314   1.000
    Y9      Y    0.93813   0.43919   0.87314   1.000
    Y10     Y    0.93813   0.93919   0.87314   1.000
    Y11     Y    0.06230   0.06280   0.37457   1.000
    Y12     Y    0.06230   0.56279   0.37457   1.000
    Y13     Y    0.56229   0.06280   0.37457   1.000
    Y14     Y    0.56229   0.56279   0.37457   1.000
    Y15     Y    0.43776   0.06227   0.62802   1.000
    C16     C    0.39738   0.03749   0.41899   1.000
    C17     C    0.39737   0.53748   0.41899   1.000
    C18     C    0.89737   0.03749   0.41899   1.000
    C19     C    0.89737   0.53748   0.41899   1.000
    C20     C    0.10285   0.46277   0.91810   1.000
    C21     C    0.10285   0.96276   0.91810   1.000
    C22     C    0.60285   0.46277   0.91816   1.000
    C23     C    0.60285   0.96276   0.91810   1.000
    C24     C    0.46152   0.39499   0.67092   1.000
    C25     C    0.46151   0.89499   0.67092   1.000
    C26     C    0.96151   0.39499   0.67092   1.000
    C27     C    0.96151   0.89498   0.67092   1.000
    C28     C    0.00076   0.31629   0.00021   1.000
    C29     C    0.00076   0.81628   0.00021   1.000
    C30     C    0.50075   0.31629   0.00021   1.000
    C31     C    0.03905   0.10426   0.16696   1.000
    C32     C    0.03904   0.60425   0.16690   1.000
    C33     C    0.53904   0.10426   0.16696   1.000
    C34     C    0.53904   0.60426   0.16696   1.000
    C35     C    0.10286   0.03890   0.58303   1.000
    C36     C    0.10286   0.53889   0.58303   1.000
    C37     C    0.60286   0.03890   0.58303   1.000
    C38     C    0.60286   0.53889   0.58303   1.000
    O39     O    0.13094   0.04400   0.50291   1.000
    O40     O    0.13094   0.54399   0.50291   1.000
    O41     O    0.63094   0.04400   0.50291   1.000
    O42     O    0.63093   0.54400   0.50291   1.000
    O43     O    0.34195   0.04426   0.69975   1.000
    C44     C    0.39851   0.46344   0.08427   1.000
    C45     C    0.39851   0.96343   0.08427   1.000
    C46     C    0.89850   0.46344   0.08427   1.000
    C47     C    0.89850   0.96343   0.08427   1.000
    C48     C    0.03850   0.39632   0.33419   1.000
    C49     C    0.03850   0.89631   0.33419   1.000
    C50     C    0.53850   0.39632   0.33419   1.000
    C51     C    0.53849   0.89631   0.33419   1.000
    C52     C    0.46335   0.10596   0.83067   1.000
    C53     C    0.46335   0.60595   0.83067   1.000
    C54     C    0.96335   0.10596   0.83067   1.000
    C55     C    0.96334   0.60595   0.83067   1.000
    C56     C    0.18629   0.00002   0.25155   1.000
    C57     C    0.18629   0.50001   0.25155   1.000
    C58     C    0.68628   0.00002   0.25155   1.000
    C59     C    0.68628   0.50001   0.25155   1.000
    C60     C    0.31386   0.00236   0.75170   1.000
    C61     C    0.31386   0.50236   0.75174   1.000
    C62     C    0.81386   0.00236   0.75174   1.000
    C63     C    0.81385   0.50236   0.75170   1.000
    C64     C    0.99840   0.18487   0.50012   1.000
    C65     C    0.99840   0.68486   0.50012   1.000
    C66     C    0.49840   0.18487   0.50012   1.000
    C67     C    0.49839   0.68486   0.50012   1.000
    C68     C    0.50075   0.81628   0.00021   1.000
    O69     O    0.36993   0.04101   0.49900   1.000
    O70     O    0.36993   0.54100   0.49900   1.000
    O71     O    0.86993   0.04101   0.49900   1.000
    O72     O    0.86993   0.54100   0.49900   1.000
    O73     O    0.15807   0.04182   0.30360   1.000
    O74     O    0.15807   0.54181   0.30360   1.000
    O75     O    0.65806   0.04182   0.30360   1.000
    O76     O    0.65806   0.54181   0.30360   1.000
    O77     O    0.45788   0.04716   0.40861   1.000
    O78     O    0.45788   0.54715   0.40861   1.000
    O79     O    0.95787   0.04716   0.40861   1.000
    O80     O    0.95787   0.54715   0.40861   1.000
    O81     O    0.13059   0.45850   0.99863   1.000
    O82     O    0.13059   0.95850   0.99863   1.000
    O83     O    0.63058   0.45850   0.99863   1.000
    O84     O    0.63058   0.95849   0.99863   1.000
    O85     O    0.34197   0.46056   0.80410   1.000
    O86     O    0.34197   0.96056   0.80413   1.000
    O87     O    0.84196   0.46056   0.80410   1.000
    O88     O    0.84196   0.96056   0.80410   1.000
    O89     O    0.04225   0.45338   0.90847   1.000
    O90     O    0.04225   0.95337   0.90847   1.000
    O91     O    0.54225   0.45338   0.90847   1.000
    O92     O    0.54225   0.95337   0.90847   1.000
    O93     O    0.45530   0.36509   0.74960   1.000
    O94     O    0.45530   0.86508   0.74960   1.000
    O95     O    0.95529   0.36509   0.74960   1.000
    O96     O    0.95529   0.86508   0.74960   1.000
    O97     O    0.45602   0.15630   0.55036   1.000
    O98     O    0.45602   0.65629   0.55036   1.000
    O99     O    0.95602   0.15630   0.55036   1.000
    O100    O    0.95602   0.65629   0.55036   1.000
    O101    O    0.45448   0.45671   0.66617   1.000
    O102    O    0.45448   0.95670   0.66617   1.000
    O103    O    0.95447   0.45671   0.66617   1.000
    O104    O    0.95447   0.95670   0.66617   1.000
    O105    O    0.04425   0.13290   0.24665   1.000
    O106    O    0.04425   0.63289   0.24665   1.000
    O107    O    0.54424   0.13290   0.24665   1.000
    O108    O    0.54424   0.63289   0.24665   1.000
    O109    O    0.04324   0.34394   0.05100   1.000
    O110    O    0.04324   0.84393   0.05109   1.000
    O111    O    0.54323   0.34394   0.05109   1.000
    O112    O    0.54324   0.84393   0.05109   1.000
    O113    O    0.04734   0.04305   0.15921   1.000
    O114    O    0.04734   0.54304   0.15921   1.000
    O115    O    0.54734   0.04305   0.15921   1.000
    O116    O    0.54734   0.54304   0.15921   1.000
    O117    O    0.34195   0.54425   0.69975   1.000
    O118    O    0.84194   0.04426   0.69975   1.000
    O119    O    0.84194   0.54425   0.69975   1.000
    O120    O    0.04187   0.04687   0.59175   1.000
    O121    O    0.04187   0.54686   0.59175   1.000
    O122    O    0.54186   0.04687   0.59175   1.000
    O123    O    0.54186   0.54686   0.59175   1.000
    O124    O    0.37184   0.46096   0.00287   1.000
    O125    O    0.37184   0.96095   0.00287   1.000
    O126    O    0.87183   0.46096   0.00287   1.000
    O127    O    0.87183   0.96095   0.00287   1.000
    O128    O    0.15839   0.45816   0.19973   1.000
    O129    O    0.15839   0.95815   0.19973   1.000
    O130    O    0.65838   0.45816   0.19973   1.000
    O131    O    0.65838   0.95815   0.19973   1.000
    O132    O    0.45877   0.45282   0.09566   1.000
    O133    O    0.45877   0.95282   0.09566   1.000
    O134    O    0.95876   0.45282   0.09566   1.000
    O135    O    0.95876   0.95282   0.09566   1.000
    O136    O    0.04424   0.36731   0.25482   1.000
    O137    O    0.04424   0.86731   0.25482   1.000
    O138    O    0.54423   0.36731   0.25482   1.000
    O139    O    0.54423   0.86731   0.25482   1.000
    O140    O    0.04120   0.15727   0.44919   1.000
    O141    O    0.04120   0.65726   0.44919   1.000
    O142    O    0.54120   0.15727   0.44919   1.000
    O143    O    0.54119   0.65726   0.44919   1.000
    O144    O    0.04709   0.45749   0.34150   1.000
    O145    O    0.04709   0.95748   0.34150   1.000
    O146    O    0.54708   0.45749   0.34150   1.000
    O147    O    0.54708   0.95748   0.34150   1.000
    O148    O    0.45792   0.13526   0.75130   1.000
    O149    O    0.45791   0.63526   0.75130   1.000
    O150    O    0.95791   0.13526   0.75130   1.000
    O151    O    0.95791   0.63526   0.75130   1.000
    O152    O    0.45818   0.34473   0.94993   1.000
    O153    O    0.45818   0.84472   0.94993   1.000
    O154    O    0.95817   0.34473   0.94993   1.000
    O155    O    0.95817   0.84472   0.94993   1.000
    O156    O    0.45519   0.04459   0.83720   1.000
    O157    O    0.45519   0.54458   0.83720   1.000
    O158    O    0.95518   0.04459   0.83720   1.000
    O159    O    0.95518   0.54458   0.83720   1.000
    Og160   Og   0.38466   0.03150   0.39039   1.000
    Og161   Og   0.38466   0.53149   0.39039   1.000
    Og162   Og   0.88465   0.03150   0.39042   1.000
    Og163   Og   0.88465   0.53150   0.39039   1.000
    Og164   Og   0.11550   0.46898   0.88951   1.000
    Og165   Og   0.11550   0.96897   0.88951   1.000
    Og166   Og   0.61550   0.46898   0.88955   1.000
    Og167   Og   0.61550   0.96897   0.88951   1.000
    Og168   Og   0.46749   0.38282   0.64176   1.000
    Og169   Og   0.46749   0.88282   0.64176   1.000
    Og170   Og   0.96748   0.38282   0.64176   1.000
    Og171   Og   0.96748   0.88282   0.64176   1.000
    Og172   Og   0.00081   0.29213   0.00001   1.000
    Og173   Og   0.00081   0.79212   0.00001   1.000
    Og174   Og   0.50081   0.29213   0.00001   1.000
    Og175   Og   0.03295   0.11683   0.13814   1.000
    Og176   Og   0.03295   0.61682   0.13810   1.000
    Og177   Og   0.53295   0.11683   0.13814   1.000
    Og178   Og   0.53295   0.61682   0.13814   1.000
    Og179   Og   0.11551   0.03292   0.61175   1.000
    Og180   Og   0.11551   0.53291   0.61175   1.000
    Og181   Og   0.61550   0.03292   0.61175   1.000
    Og182   Og   0.61550   0.53292   0.61175   1.000
    Og183   Og   0.38557   0.46937   0.11275   1.000
    Og184   Og   0.38557   0.96936   0.11275   1.000
    Og185   Og   0.88556   0.46937   0.11275   1.000
    Og186   Og   0.88556   0.96936   0.11275   1.000
    Og187   Og   0.03210   0.38390   0.36299   1.000
    Og188   Og   0.03210   0.88389   0.36299   1.000
    Og189   Og   0.53210   0.38390   0.36299   1.000
    Og190   Og   0.53209   0.88389   0.36299   1.000
    Og191   Og   0.46943   0.11822   0.85961   1.000
    Og192   Og   0.46943   0.61822   0.85961   1.000
    Og193   Og   0.96942   0.11822   0.85961   1.000
    Og194   Og   0.96942   0.61822   0.85961   1.000
    Og195   Og   0.21035   0.00006   0.25150   1.000
    Og196   Og   0.21035   0.50005   0.25150   1.000
    Og197   Og   0.71034   0.00006   0.25150   1.000
    Og198   Og   0.71034   0.50005   0.25150   1.000
    Og199   Og   0.28983   0.00227   0.75156   1.000
    Og200   Og   0.28983   0.50227   0.75159   1.000
    Og201   Og   0.78982   0.00228   0.75159   1.000
    Og202   Og   0.78982   0.50227   0.75156   1.000
    Og203   Og   0.99837   0.20902   0.50036   1.000
    Og204   Og   0.99837   0.70901   0.50035   1.000
    Og205   Og   0.49836   0.20902   0.50037   1.000
    Og206   Og   0.49836   0.70901   0.50036   1.000
    Og207   Og   0.50081   0.79212   0.00001   1.000
loop_
    _geom_bond_atom_site_label_1
    _geom_bond_atom_site_label_2
    _geom_bond_distance
    _geom_bond_site_symmetry_2
    _ccdc_geom_bond_type
    C28    O109      1.27309      .   S
    C28    O154      1.27271  1_454   S
    C29    O110      1.27384      .   S
    C29    O155      1.27269  1_454   S
    C30    O111      1.27382      .   S
    C30    O152      1.27252  1_554   S
    C68    O112      1.27381      .   S
    C68    O153      1.27252  1_554   S
    O127   C47       1.27189      .   S
    O127   Y10       2.32536  1_554   S
    O126   C46       1.27188      .   S
    O126   Y9        2.32535  1_554   S
    O125   C45       1.27189      .   S
    O125   Y8        2.32536  1_554   S
    O124   C44       1.27189      .   S
    O124   Y7        2.32536  1_554   S
    O109   Y3        2.25889      .   S
    O112   Y6        2.25827      .   S
    O111   Y5        2.25825      .   S
    O110   Y4        2.25827      .   S
    C46    O134      1.27878      .   S
    C44    O132      1.27878      .   S
    C45    O133      1.27878      .   S
    C47    O135      1.27876      .   S
    O134   Y3        2.23510  1_655   S
    O133   Y6        2.23480      .   S
    O135   Y4        2.23512  1_655   S
    O132   Y5        2.23480      .   S
    Y3     O114      2.24615      .   S
    Y3     O128      2.26234      .   S
    Y3     O136      2.33477      .   S
    Y3     O81       2.32687  1_554   S
    Y4     O113      2.24643  1_565   S
    Y4     O129      2.26234      .   S
    Y4     O137      2.33478      .   S
    Y4     O82       2.32686  1_554   S
    Y5     O116      2.24616      .   S
    Y5     O130      2.26234      .   S
    Y5     O138      2.33476      .   S
    Y5     O83       2.32687  1_554   S
    Y6     O115      2.24643  1_565   S
    Y6     O131      2.26236      .   S
    Y6     O139      2.33477      .   S
    Y6     O84       2.32687  1_554   S
    O116   C34       1.28096      .   S
    O115   C33       1.28096      .   S
    O114   C32       1.28088      .   S
    O113   C31       1.28096      .   S
    C32    O106      1.27305      .   S
    C31    O105      1.27229      .   S
    C33    O107      1.27229      .   S
    C34    O108      1.27229      .   S
    O131   C58       1.27370  1_565   S
    O130   C59       1.27348      .   S
    O129   C56       1.27370  1_565   S
    O128   C57       1.27346      .   S
    O105   Y11       2.33439      .   S
    O106   Y12       2.33438      .   S
    O107   Y13       2.33438      .   S
    O108   Y14       2.33438      .   S
    C56    O73       1.27338      .   S
    C57    O74       1.27338      .   S
    C58    O75       1.27338      .   S
    C59    O76       1.27338      .   S
    O139   C51       1.27220      .   S
    O138   C50       1.27219      .   S
    O137   C49       1.27219      .   S
    O136   C48       1.27220      .   S
    O75    Y13       2.26298      .   S
    O74    Y12       2.26297      .   S
    O76    Y14       2.26298      .   S
    O73    Y11       2.26296      .   S
    C48    O144      1.28191      .   S
    C49    O145      1.28191      .   S
    C50    O146      1.28191      .   S
    C51    O147      1.28191      .   S
    O144   Y12       2.25011      .   S
    O145   Y11       2.25042  1_565   S
    O146   Y14       2.25011      .   S
    O147   Y13       2.25039  1_565   S
    Y14    O78       2.24295      .   S
    Y14    O143      2.25933      .   S
    Y14    O42       2.32930      .   S
    Y13    O77       2.24294      .   S
    Y13    O142      2.25930      .   S
    Y13    O41       2.32931      .   S
    Y12    O80       2.24325  1_455   S
    Y12    O141      2.25931      .   S
    Y12    O40       2.32930      .   S
    Y11    O79       2.24324  1_455   S
    Y11    O140      2.25931      .   S
    Y11    O39       2.32929      .   S
    O80    C19       1.28036      .   S
    O79    C18       1.28036      .   S
    O78    C17       1.28036      .   S
    O77    C16       1.28036      .   S
    C18    O71       1.26117      .   S
    C17    O70       1.26118      .   S
    C16    O69       1.26118      .   S
    C19    O72       1.26118      .   S
    O140   C64       1.27352  1_455   S
    O141   C65       1.27352  1_455   S
    O142   C66       1.27351      .   S
    O143   C67       1.27353      .   S
    O69    Y15       2.33937      .   S
    O70    Y0        2.33938      .   S
    O71    Y1        2.33937      .   S
    O72    Y2        2.33937      .   S
    C64    O99       1.27313      .   S
    C67    O98       1.27293      .   S
    C65    O100      1.27316      .   S
    C66    O97       1.27295      .   S
    O41    C37       1.27078      .   S
    O40    C36       1.27078      .   S
    O39    C35       1.27078      .   S
    O42    C38       1.27078      .   S
    O97    Y15       2.25912      .   S
    O98    Y0        2.25911      .   S
    O100   Y2        2.25912      .   S
    O99    Y1        2.25914      .   S
    C35    O120      1.28152      .   S
    C36    O121      1.28152      .   S
    C37    O122      1.28154      .   S
    C38    O123      1.28154      .   S
    O122   Y15       2.24053      .   S
    O120   Y1        2.24083  1_455   S
    O121   Y2        2.24083  1_455   S
    O123   Y0        2.24053      .   S
    Y0     O101      2.27019      .   S
    Y0     O117      2.25960      .   S
    Y0     O149      2.33865      .   S
    Y15    O102      2.27048  1_545   S
    Y15    O43       2.25960      .   S
    Y15    O148      2.33863      .   S
    Y2     O103      2.27018      .   S
    Y2     O119      2.25960      .   S
    Y2     O151      2.33865      .   S
    Y1     O104      2.27048  1_545   S
    Y1     O118      2.25960      .   S
    Y1     O150      2.33864      .   S
    O104   C27       1.28479      .   S
    O103   C26       1.28479      .   S
    O102   C25       1.28479      .   S
    O101   C24       1.28479      .   S
    C27    O96       1.27126      .   S
    C26    O95       1.27126      .   S
    C25    O94       1.27125      .   S
    C24    O93       1.27125      .   S
    O43    C60       1.27338      .   S
    O117   C61       1.27368      .   S
    O118   C62       1.27368      .   S
    O119   C63       1.27337      .   S
    O93    Y7        2.34312      .   S
    O94    Y8        2.34311      .   S
    O95    Y9        2.34312      .   S
    O96    Y10       2.34314      .   S
    O148   C52       1.27199      .   S
    O151   C55       1.27198      .   S
    O149   C53       1.27199      .   S
    O150   C54       1.27199      .   S
    C60    O86       1.27360  1_545   S
    C63    O87       1.27318      .   S
    C61    O85       1.27286      .   S
    C62    O88       1.27305  1_545   S
    O88    Y10       2.26110      .   S
    O87    Y9        2.26108      .   S
    O85    Y7        2.26108      .   S
    O86    Y8        2.26090      .   S
    C54    O158      1.28330      .   S
    C52    O156      1.28328      .   S
    C53    O157      1.28330      .   S
    C55    O159      1.28329      .   S
    O156   Y8        2.26400  1_545   S
    O157   Y7        2.26367      .   S
    O158   Y10       2.26398  1_545   S
    O159   Y9        2.26370      .   S
    Y7     O91       2.23792      .   S
    Y7     O152      2.26495      .   S
    Y8     O92       2.23793      .   S
    Y8     O153      2.26493      .   S
    Y9     O89       2.23823  1_655   S
    Y9     O154      2.26493      .   S
    Y10    O90       2.23821  1_655   S
    Y10    O155      2.26493      .   S
    O91    C22       1.28078      .   S
    O92    C23       1.28069      .   S
    O90    C21       1.28069      .   S
    O89    C20       1.28069      .   S
    C23    O84       1.27222      .   S
    C20    O81       1.27222      .   S
    C21    O82       1.27222      .   S
    C22    O83       1.27147      .   S
    O101   Y7        2.94732      .   S
    O102   Y8        2.94732      .   S
    O103   Y9        2.94732      .   S
    O104   Y10       2.94732      .   S
    O156   Y15       2.98145      .   S
    O157   Y0        2.98144      .   S
    O158   Y1        2.98144      .   S
    O159   Y2        2.98145      .   S
    C16    Og160     0.49699      .   S
    C17    Og161     0.49699      .   S
    C18    Og162     0.49668      .   S
    C19    Og163     0.49699      .   S
    C20    Og164     0.49626      .   S
    C21    Og165     0.49627      .   S
    C22    Og166     0.49649      .   S
    C23    Og167     0.49627      .   S
    C24    Og168     0.49645      .   S
    C25    Og169     0.49644      .   S
    C26    Og170     0.49645      .   S
    C27    Og171     0.49645      .   S
    C28    Og172     0.49925      .   S
    C29    Og173     0.49926      .   S
    C30    Og174     0.49925      .   S
    C31    Og175     0.49646      .   S
    C32    Og176     0.49623      .   S
    C33    Og177     0.49645      .   S
    C34    Og178     0.49645      .   S
    C35    Og179     0.49645      .   S
    C36    Og180     0.49644      .   S
    C37    Og181     0.49644      .   S
    C38    Og182     0.49644      .   S
    C44    Og183     0.49684      .   S
    C45    Og184     0.49684      .   S
    C46    Og185     0.49684      .   S
    C47    Og186     0.49684      .   S
    C48    Og187     0.49675      .   S
    C49    Og188     0.49674      .   S
    C50    Og189     0.49675      .   S
    C51    Og190     0.49675      .   S
    C52    Og191     0.49634      .   S
    C53    Og192     0.49634      .   S
    C54    Og193     0.49634      .   S
    C55    Og194     0.49633      .   S
    C56    Og195     0.49932      .   S
    C57    Og196     0.49932      .   S
    C58    Og197     0.49932      .   S
    C59    Og198     0.49932      .   S
    C60    Og199     0.49881      .   S
    C61    Og200     0.49881      .   S
    C62    Og201     0.49881      .   S
    C63    Og202     0.49881      .   S
    C64    Og203     0.49916      .   S
    C65    Og204     0.49916      .   S
    C66    Og205     0.49917      .   S
    C67    Og206     0.49917      .   S
    C68    Og207     0.49925      .   S
