# CIF file generated by openbabel 2.4.90, see http://openbabel.sf.net
data_I
_chemical_name_common ''
_cell_length_a 20.752
_cell_length_b 20.667
_cell_length_c 14.043
_cell_angle_alpha 89.845
_cell_angle_beta 89.931
_cell_angle_gamma 89.747
_space_group_name_H-M_alt 'P 1'
_space_group_name_Hall 'P 1'
loop_
    _symmetry_equiv_pos_as_xyz
    x,y,z
loop_
    _atom_site_label
    _atom_site_type_symbol
    _atom_site_fract_x
    _atom_site_fract_y
    _atom_site_fract_z
    _atom_site_occupancy
    C0      C    0.39738   0.03749   0.41899   1.000
    C1      C    0.39737   0.53748   0.41899   1.000
    C2      C    0.89737   0.03749   0.41899   1.000
    C3      C    0.89737   0.53748   0.41899   1.000
    C4      C    0.10285   0.46277   0.91810   1.000
    C5      C    0.10285   0.96276   0.91810   1.000
    C6      C    0.60285   0.46277   0.91816   1.000
    C7      C    0.60285   0.96276   0.91810   1.000
    C8      C    0.46152   0.39499   0.67092   1.000
    C9      C    0.46151   0.89499   0.67092   1.000
    C10     C    0.96151   0.39499   0.67092   1.000
    C11     C    0.96151   0.89498   0.67092   1.000
    C12     C    0.00076   0.31629   0.00021   1.000
    C13     C    0.00076   0.81628   0.00021   1.000
    C14     C    0.50075   0.31629   0.00021   1.000
    C15     C    0.03905   0.10426   0.16696   1.000
    C16     C    0.03904   0.60425   0.16690   1.000
    C17     C    0.53904   0.10426   0.16696   1.000
    C18     C    0.53904   0.60426   0.16696   1.000
    C19     C    0.10286   0.03890   0.58303   1.000
    C20     C    0.10286   0.53889   0.58303   1.000
    C21     C    0.60286   0.03890   0.58303   1.000
    C22     C    0.60286   0.53889   0.58303   1.000
    O23     O    0.13094   0.04400   0.50291   1.000
    O24     O    0.13094   0.54399   0.50291   1.000
    O25     O    0.63094   0.04400   0.50291   1.000
    O26     O    0.63093   0.54400   0.50291   1.000
    O27     O    0.34195   0.04426   0.69975   1.000
    C28     C    0.39851   0.46344   0.08427   1.000
    C29     C    0.39851   0.96343   0.08427   1.000
    C30     C    0.89850   0.46344   0.08427   1.000
    C31     C    0.89850   0.96343   0.08427   1.000
    C32     C    0.03850   0.39632   0.33419   1.000
    C33     C    0.03850   0.89631   0.33419   1.000
    C34     C    0.53850   0.39632   0.33419   1.000
    C35     C    0.53849   0.89631   0.33419   1.000
    C36     C    0.46335   0.10596   0.83067   1.000
    C37     C    0.46335   0.60595   0.83067   1.000
    C38     C    0.96335   0.10596   0.83067   1.000
    C39     C    0.96334   0.60595   0.83067   1.000
    C40     C    0.18629   0.00002   0.25155   1.000
    C41     C    0.18629   0.50001   0.25155   1.000
    C42     C    0.68628   0.00002   0.25155   1.000
    C43     C    0.68628   0.50001   0.25155   1.000
    C44     C    0.31386   0.00236   0.75170   1.000
    C45     C    0.31386   0.50236   0.75174   1.000
    C46     C    0.81386   0.00236   0.75174   1.000
    C47     C    0.81385   0.50236   0.75170   1.000
    C48     C    0.99840   0.18487   0.50012   1.000
    C49     C    0.99840   0.68486   0.50012   1.000
    C50     C    0.49840   0.18487   0.50012   1.000
    C51     C    0.49839   0.68486   0.50012   1.000
    C52     C    0.50075   0.81628   0.00021   1.000
    O53     O    0.36993   0.04101   0.49900   1.000
    O54     O    0.36993   0.54100   0.49900   1.000
    O55     O    0.86993   0.04101   0.49900   1.000
    O56     O    0.86993   0.54100   0.49900   1.000
    O57     O    0.15807   0.04182   0.30360   1.000
    O58     O    0.15807   0.54181   0.30360   1.000
    O59     O    0.65806   0.04182   0.30360   1.000
    O60     O    0.65806   0.54181   0.30360   1.000
    O61     O    0.45788   0.04716   0.40861   1.000
    O62     O    0.45788   0.54715   0.40861   1.000
    O63     O    0.95787   0.04716   0.40861   1.000
    O64     O    0.95787   0.54715   0.40861   1.000
    O65     O    0.13059   0.45850   0.99863   1.000
    O66     O    0.13059   0.95850   0.99863   1.000
    O67     O    0.63058   0.45850   0.99863   1.000
    O68     O    0.63058   0.95849   0.99863   1.000
    O69     O    0.34197   0.46056   0.80410   1.000
    O70     O    0.34197   0.96056   0.80413   1.000
    O71     O    0.84196   0.46056   0.80410   1.000
    O72     O    0.84196   0.96056   0.80410   1.000
    O73     O    0.04225   0.45338   0.90847   1.000
    O74     O    0.04225   0.95337   0.90847   1.000
    O75     O    0.54225   0.45338   0.90847   1.000
    O76     O    0.54225   0.95337   0.90847   1.000
    O77     O    0.45530   0.36509   0.74960   1.000
    O78     O    0.45530   0.86508   0.74960   1.000
    O79     O    0.95529   0.36509   0.74960   1.000
    O80     O    0.95529   0.86508   0.74960   1.000
    O81     O    0.45602   0.15630   0.55036   1.000
    O82     O    0.45602   0.65629   0.55036   1.000
    O83     O    0.95602   0.15630   0.55036   1.000
    O84     O    0.95602   0.65629   0.55036   1.000
    O85     O    0.45448   0.45671   0.66617   1.000
    O86     O    0.45448   0.95670   0.66617   1.000
    O87     O    0.95447   0.45671   0.66617   1.000
    O88     O    0.95447   0.95670   0.66617   1.000
    O89     O    0.04425   0.13290   0.24665   1.000
    O90     O    0.04425   0.63289   0.24665   1.000
    O91     O    0.54424   0.13290   0.24665   1.000
    O92     O    0.54424   0.63289   0.24665   1.000
    O93     O    0.04324   0.34394   0.05100   1.000
    O94     O    0.04324   0.84393   0.05109   1.000
    O95     O    0.54323   0.34394   0.05109   1.000
    O96     O    0.54324   0.84393   0.05109   1.000
    O97     O    0.04734   0.04305   0.15921   1.000
    O98     O    0.04734   0.54304   0.15921   1.000
    O99     O    0.54734   0.04305   0.15921   1.000
    O100    O    0.54734   0.54304   0.15921   1.000
    O101    O    0.34195   0.54425   0.69975   1.000
    O102    O    0.84194   0.04426   0.69975   1.000
    O103    O    0.84194   0.54425   0.69975   1.000
    O104    O    0.04187   0.04687   0.59175   1.000
    O105    O    0.04187   0.54686   0.59175   1.000
    O106    O    0.54186   0.04687   0.59175   1.000
    O107    O    0.54186   0.54686   0.59175   1.000
    O108    O    0.37184   0.46096   0.00287   1.000
    O109    O    0.37184   0.96095   0.00287   1.000
    O110    O    0.87183   0.46096   0.00287   1.000
    O111    O    0.87183   0.96095   0.00287   1.000
    O112    O    0.15839   0.45816   0.19973   1.000
    O113    O    0.15839   0.95815   0.19973   1.000
    O114    O    0.65838   0.45816   0.19973   1.000
    O115    O    0.65838   0.95815   0.19973   1.000
    O116    O    0.45877   0.45282   0.09566   1.000
    O117    O    0.45877   0.95282   0.09566   1.000
    O118    O    0.95876   0.45282   0.09566   1.000
    O119    O    0.95876   0.95282   0.09566   1.000
    O120    O    0.04424   0.36731   0.25482   1.000
    O121    O    0.04424   0.86731   0.25482   1.000
    O122    O    0.54423   0.36731   0.25482   1.000
    O123    O    0.54423   0.86731   0.25482   1.000
    O124    O    0.04120   0.15727   0.44919   1.000
    O125    O    0.04120   0.65726   0.44919   1.000
    O126    O    0.54120   0.15727   0.44919   1.000
    O127    O    0.54119   0.65726   0.44919   1.000
    O128    O    0.04709   0.45749   0.34150   1.000
    O129    O    0.04709   0.95748   0.34150   1.000
    O130    O    0.54708   0.45749   0.34150   1.000
    O131    O    0.54708   0.95748   0.34150   1.000
    O132    O    0.45792   0.13526   0.75130   1.000
    O133    O    0.45791   0.63526   0.75130   1.000
    O134    O    0.95791   0.13526   0.75130   1.000
    O135    O    0.95791   0.63526   0.75130   1.000
    O136    O    0.45818   0.34473   0.94993   1.000
    O137    O    0.45818   0.84472   0.94993   1.000
    O138    O    0.95817   0.34473   0.94993   1.000
    O139    O    0.95817   0.84472   0.94993   1.000
    O140    O    0.45519   0.04459   0.83720   1.000
    O141    O    0.45519   0.54458   0.83720   1.000
    O142    O    0.95518   0.04459   0.83720   1.000
    O143    O    0.95518   0.54458   0.83720   1.000
loop_
    _geom_bond_atom_site_label_1
    _geom_bond_atom_site_label_2
    _geom_bond_distance
    _geom_bond_site_symmetry_2
    _ccdc_geom_bond_type
    C12    O93       1.27309      .   S
    C12    O138      1.27271  1_454   S
    C13    O94       1.27384      .   S
    C13    O139      1.27269  1_454   S
    C14    O95       1.27382      .   S
    C14    O136      1.27252  1_554   S
    C52    O96       1.27381      .   S
    C52    O137      1.27252  1_554   S
    O111   C31       1.27189      .   S
    O110   C30       1.27188      .   S
    O109   C29       1.27189      .   S
    O108   C28       1.27189      .   S
    C30    O118      1.27878      .   S
    C28    O116      1.27878      .   S
    C29    O117      1.27878      .   S
    C31    O119      1.27876      .   S
    O100   C18       1.28096      .   S
    O99    C17       1.28096      .   S
    O98    C16       1.28088      .   S
    O97    C15       1.28096      .   S
    C16    O90       1.27305      .   S
    C15    O89       1.27229      .   S
    C17    O91       1.27229      .   S
    C18    O92       1.27229      .   S
    O115   C42       1.27370  1_565   S
    O114   C43       1.27348      .   S
    O113   C40       1.27370  1_565   S
    O112   C41       1.27346      .   S
    C40    O57       1.27338      .   S
    C41    O58       1.27338      .   S
    C42    O59       1.27338      .   S
    C43    O60       1.27338      .   S
    O123   C35       1.27220      .   S
    O122   C34       1.27219      .   S
    O121   C33       1.27219      .   S
    O120   C32       1.27220      .   S
    C32    O128      1.28191      .   S
    C33    O129      1.28191      .   S
    C34    O130      1.28191      .   S
    C35    O131      1.28191      .   S
    O64    C3        1.28036      .   S
    O63    C2        1.28036      .   S
    O62    C1        1.28036      .   S
    O61    C0        1.28036      .   S
    C2     O55       1.26117      .   S
    C1     O54       1.26118      .   S
    C0     O53       1.26118      .   S
    C3     O56       1.26118      .   S
    O124   C48       1.27352  1_455   S
    O125   C49       1.27352  1_455   S
    O126   C50       1.27351      .   S
    O127   C51       1.27353      .   S
    C48    O83       1.27313      .   S
    C51    O82       1.27293      .   S
    C49    O84       1.27316      .   S
    C50    O81       1.27295      .   S
    O25    C21       1.27078      .   S
    O24    C20       1.27078      .   S
    O23    C19       1.27078      .   S
    O26    C22       1.27078      .   S
    C19    O104      1.28152      .   S
    C20    O105      1.28152      .   S
    C21    O106      1.28154      .   S
    C22    O107      1.28154      .   S
    O88    C11       1.28479      .   S
    O87    C10       1.28479      .   S
    O86    C9        1.28479      .   S
    O85    C8        1.28479      .   S
    C11    O80       1.27126      .   S
    C10    O79       1.27126      .   S
    C9     O78       1.27125      .   S
    C8     O77       1.27125      .   S
    O27    C44       1.27338      .   S
    O101   C45       1.27368      .   S
    O102   C46       1.27368      .   S
    O103   C47       1.27337      .   S
    O132   C36       1.27199      .   S
    O135   C39       1.27198      .   S
    O133   C37       1.27199      .   S
    O134   C38       1.27199      .   S
    C44    O70       1.27360  1_545   S
    C47    O71       1.27318      .   S
    C45    O69       1.27286      .   S
    C46    O72       1.27305  1_545   S
    C38    O142      1.28330      .   S
    C36    O140      1.28328      .   S
    C37    O141      1.28330      .   S
    C39    O143      1.28329      .   S
    O75    C6        1.28078      .   S
    O76    C7        1.28069      .   S
    O74    C5        1.28069      .   S
    O73    C4        1.28069      .   S
    C7     O68       1.27222      .   S
    C4     O65       1.27222      .   S
    C5     O66       1.27222      .   S
    C6     O67       1.27147      .   S
