# CIF file generated by openbabel 2.4.90, see http://openbabel.sf.net
data_I
_chemical_name_common ''
_cell_length_a 20.752
_cell_length_b 20.667
_cell_length_c 14.043
_cell_angle_alpha 89.845
_cell_angle_beta 89.931
_cell_angle_gamma 89.747
_space_group_name_H-M_alt 'P 1'
_space_group_name_Hall 'P 1'
loop_
    _symmetry_equiv_pos_as_xyz
    x,y,z
loop_
    _atom_site_label
    _atom_site_type_symbol
    _atom_site_fract_x
    _atom_site_fract_y
    _atom_site_fract_z
    _atom_site_occupancy
    C0      C    0.39738   0.03749   0.41899   1.000
    C1      C    0.39737   0.53748   0.41899   1.000
    C2      C    0.89737   0.03749   0.41899   1.000
    C3      C    0.89737   0.53748   0.41899   1.000
    C4      C    0.10285   0.46277   0.91810   1.000
    C5      C    0.10285   0.96276   0.91810   1.000
    C6      C    0.60285   0.46277   0.91816   1.000
    C7      C    0.60285   0.96276   0.91810   1.000
    C8      C    0.46152   0.39499   0.67092   1.000
    C9      C    0.46151   0.89499   0.67092   1.000
    C10     C    0.96151   0.39499   0.67092   1.000
    C11     C    0.96151   0.89498   0.67092   1.000
    C12     C    0.00076   0.31629   0.00021   1.000
    C13     C    0.00076   0.81628   0.00021   1.000
    C14     C    0.50075   0.31629   0.00021   1.000
    C15     C    0.03905   0.10426   0.16696   1.000
    C16     C    0.03904   0.60425   0.16690   1.000
    C17     C    0.53904   0.10426   0.16696   1.000
    C18     C    0.53904   0.60426   0.16696   1.000
    C19     C    0.10286   0.03890   0.58303   1.000
    C20     C    0.10286   0.53889   0.58303   1.000
    C21     C    0.60286   0.03890   0.58303   1.000
    C22     C    0.60286   0.53889   0.58303   1.000
    C23     C    0.39851   0.46344   0.08427   1.000
    C24     C    0.39851   0.96343   0.08427   1.000
    C25     C    0.89850   0.46344   0.08427   1.000
    C26     C    0.89850   0.96343   0.08427   1.000
    C27     C    0.03850   0.39632   0.33419   1.000
    C28     C    0.03850   0.89631   0.33419   1.000
    C29     C    0.53850   0.39632   0.33419   1.000
    C30     C    0.53849   0.89631   0.33419   1.000
    C31     C    0.46335   0.10596   0.83067   1.000
    C32     C    0.46335   0.60595   0.83067   1.000
    C33     C    0.96335   0.10596   0.83067   1.000
    C34     C    0.96334   0.60595   0.83067   1.000
    C35     C    0.18629   0.00002   0.25155   1.000
    C36     C    0.18629   0.50001   0.25155   1.000
    C37     C    0.68628   0.00002   0.25155   1.000
    C38     C    0.68628   0.50001   0.25155   1.000
    C39     C    0.31386   0.00236   0.75170   1.000
    C40     C    0.31386   0.50236   0.75174   1.000
    C41     C    0.81386   0.00236   0.75174   1.000
    C42     C    0.81385   0.50236   0.75170   1.000
    C43     C    0.99840   0.18487   0.50012   1.000
    C44     C    0.99840   0.68486   0.50012   1.000
    C45     C    0.49840   0.18487   0.50012   1.000
    C46     C    0.49839   0.68486   0.50012   1.000
    C47     C    0.50075   0.81628   0.00021   1.000
