# CIF file generated by openbabel 2.4.90, see http://openbabel.sf.net
data_I
_chemical_name_common ''
_cell_length_a 20.752
_cell_length_b 20.667
_cell_length_c 14.043
_cell_angle_alpha 89.845
_cell_angle_beta 89.931
_cell_angle_gamma 89.747
_space_group_name_H-M_alt 'P 1'
_space_group_name_Hall 'P 1'
loop_
    _symmetry_equiv_pos_as_xyz
    x,y,z
loop_
    _atom_site_label
    _atom_site_type_symbol
    _atom_site_fract_x
    _atom_site_fract_y
    _atom_site_fract_z
    _atom_site_occupancy
    Zr0     Zr   0.43776   0.06227   0.62802   1.000
    Zr1     Zr   0.43775   0.56226   0.62802   1.000
    Zr2     Zr   0.93775   0.06227   0.62802   1.000
    Zr3     Zr   0.93775   0.56226   0.62802   1.000
    Zr4     Zr   0.06324   0.43769   0.12761   1.000
    Zr5     Zr   0.06324   0.93768   0.12761   1.000
    Zr6     Zr   0.56323   0.43769   0.12761   1.000
    Zr7     Zr   0.56323   0.93768   0.12761   1.000
    Zr8     Zr   0.43814   0.43919   0.87314   1.000
    Zr9     Zr   0.43814   0.93919   0.87314   1.000
    Zr10    Zr   0.93813   0.43919   0.87314   1.000
    Zr11    Zr   0.93813   0.93919   0.87314   1.000
    Zr12    Zr   0.06230   0.06280   0.37457   1.000
    Zr13    Zr   0.06230   0.56279   0.37457   1.000
    Zr14    Zr   0.56229   0.06280   0.37457   1.000
    Zr15    Zr   0.56229   0.56279   0.37457   1.000
    N16     N    0.50109   0.67639   0.99920   1.000
    N17     N    0.32550   0.50028   0.25145   1.000
    N18     N    0.67472   0.50146   0.75090   1.000
    N19     N    0.17473   0.00146   0.75086   1.000
    N20     N    0.00109   0.17640   0.99920   1.000
    N21     N    0.82549   0.50028   0.25145   1.000
    N22     N    0.49905   0.82474   0.50165   1.000
    N23     N    0.67472   0.00147   0.75087   1.000
    N24     N    0.82549   0.00029   0.25146   1.000
    N25     N    0.50109   0.17640   0.99920   1.000
    N26     N    0.32550   0.00028   0.25145   1.000
    N27     N    0.00093   0.67639   0.99920   1.000
    N28     N    0.17473   0.50146   0.75090   1.000
    N29     N    0.99906   0.82474   0.50164   1.000
    N30     N    0.99906   0.32475   0.50165   1.000
    N31     N    0.49906   0.32475   0.50165   1.000
    C32     C    0.49854   0.66614   0.49989   1.000
    O33     O    0.47271   0.63771   0.54454   1.000
    O34     O    0.52514   0.63808   0.45588   1.000
    O35     O    0.49862   0.71953   0.50048   1.000
    C36     C    0.59189   0.45822   0.94175   1.000
    O37     O    0.59440   0.45316   0.00244   1.000
    O38     O    0.62008   0.47249   0.87741   1.000
    O39     O    0.54104   0.45225   0.91628   1.000
    C40     C    0.45882   0.59526   0.80639   1.000
    O41     O    0.47280   0.62282   0.87152   1.000
    O42     O    0.45274   0.54358   0.83078   1.000
    C43     C    0.50072   0.33499   0.00041   1.000
    O44     O    0.47444   0.36347   0.95597   1.000
    O45     O    0.52698   0.36290   0.04488   1.000
    O46     O    0.50084   0.28160   0.99998   1.000
    C47     C    0.54327   0.40704   0.31017   1.000
    O48     O    0.54850   0.40477   0.25069   1.000
    O49     O    0.54898   0.45859   0.33410   1.000
    O50     O    0.52862   0.37913   0.37485   1.000
    C51     C    0.33259   0.50239   0.75186   1.000
    O52     O    0.36122   0.52782   0.70787   1.000
    O53     O    0.36133   0.47613   0.79524   1.000
    O54     O    0.27943   0.50212   0.75153   1.000
    C55     C    0.40839   0.54188   0.44220   1.000
    O56     O    0.45924   0.54842   0.41689   1.000
    O57     O    0.38015   0.52813   0.37799   1.000
    O58     O    0.40612   0.54675   0.50286   1.000
    C59     C    0.54354   0.59340   0.19094   1.000
    O60     O    0.52952   0.62157   0.12620   1.000
    O61     O    0.54941   0.54188   0.16717   1.000
    O62     O    0.54840   0.59562   0.25077   1.000
    C63     C    0.59188   0.54325   0.55923   1.000
    O64     O    0.59425   0.54832   0.49898   1.000
    O65     O    0.54084   0.54891   0.58456   1.000
    O66     O    0.62008   0.52947   0.62387   1.000
    C67     C    0.66758   0.49999   0.25163   1.000
    O68     O    0.72075   0.50008   0.25154   1.000
    O69     O    0.63888   0.52615   0.29536   1.000
    O70     O    0.63919   0.47396   0.20765   1.000
    C71     C    0.40971   0.45907   0.06093   1.000
    O72     O    0.40735   0.45457   0.99947   1.000
    O73     O    0.46035   0.45216   0.08628   1.000
    O74     O    0.38100   0.47269   0.12508   1.000
    C75     C    0.45710   0.40560   0.69556   1.000
    O76     O    0.47093   0.37817   0.62999   1.000
    O77     O    0.45161   0.45754   0.67133   1.000
    C78     C    0.04354   0.59340   0.19092   1.000
    O79     O    0.02948   0.62157   0.12619   1.000
    O80     O    0.04942   0.54188   0.16716   1.000
    O81     O    0.04841   0.59562   0.25076   1.000
    C82     C    0.16758   0.49999   0.25163   1.000
    O83     O    0.13920   0.47396   0.20765   1.000
    O84     O    0.22076   0.50008   0.25154   1.000
    O85     O    0.13888   0.52615   0.29536   1.000
    C86     C    0.00072   0.33498   0.00038   1.000
    O87     O    0.00084   0.28160   0.99997   1.000
    O88     O    0.02698   0.36290   0.04484   1.000
    O89     O    0.97444   0.36347   0.95596   1.000
    C90     C    0.95881   0.59526   0.80639   1.000
    O91     O    0.97275   0.62282   0.87152   1.000
    O92     O    0.95273   0.54357   0.83078   1.000
    C93     C    0.04328   0.40704   0.31017   1.000
    O94     O    0.02863   0.37913   0.37485   1.000
    O95     O    0.04899   0.45859   0.33410   1.000
    O96     O    0.04851   0.40477   0.25069   1.000
    C97     C    0.83259   0.50239   0.75185   1.000
    O98     O    0.86132   0.47613   0.79523   1.000
    O99     O    0.86122   0.52782   0.70787   1.000
    O100    O    0.77942   0.50212   0.75152   1.000
    C101    C    0.90970   0.45907   0.06093   1.000
    O102    O    0.90734   0.45457   0.99947   1.000
    O103    O    0.88099   0.47269   0.12508   1.000
    O104    O    0.96035   0.45216   0.08628   1.000
    C105    C    0.09190   0.45822   0.94173   1.000
    O106    O    0.09441   0.45315   0.00243   1.000
    O107    O    0.04105   0.45225   0.91627   1.000
    O108    O    0.12009   0.47249   0.87740   1.000
    C109    C    0.99854   0.66614   0.49989   1.000
    O110    O    0.97271   0.63771   0.54454   1.000
    O111    O    0.99862   0.71953   0.50047   1.000
    O112    O    0.02515   0.63808   0.45588   1.000
    C113    C    0.95709   0.40560   0.69556   1.000
    O114    O    0.97093   0.37817   0.62999   1.000
    O115    O    0.95160   0.45754   0.67133   1.000
    C116    C    0.09189   0.54325   0.55923   1.000
    O117    O    0.09425   0.54832   0.49898   1.000
    O118    O    0.04085   0.54891   0.58456   1.000
    O119    O    0.12009   0.52947   0.62387   1.000
    C120    C    0.90839   0.54188   0.44220   1.000
    O121    O    0.95924   0.54842   0.41689   1.000
    O122    O    0.90611   0.54675   0.50286   1.000
    O123    O    0.88014   0.52813   0.37799   1.000
    C124    C    0.45710   0.90559   0.69556   1.000
    O125    O    0.47093   0.87816   0.62999   1.000
    O126    O    0.45161   0.95754   0.67133   1.000
    C127    C    0.45882   0.09527   0.80639   1.000
    O128    O    0.45274   0.04358   0.83078   1.000
    O129    O    0.47280   0.12282   0.87152   1.000
    C130    C    0.66758   0.99999   0.25163   1.000
    O131    O    0.63888   0.02615   0.29536   1.000
    O132    O    0.72075   0.00009   0.25155   1.000
    O133    O    0.63919   0.97395   0.20765   1.000
    C134    C    0.59188   0.04326   0.55923   1.000
    O135    O    0.62008   0.02948   0.62386   1.000
    O136    O    0.59425   0.04833   0.49898   1.000
    O137    O    0.54084   0.04891   0.58456   1.000
    C138    C    0.50072   0.83498   0.00041   1.000
    O139    O    0.52698   0.86289   0.04488   1.000
    O140    O    0.47444   0.86347   0.95597   1.000
    O141    O    0.50084   0.78160   0.99998   1.000
    C142    C    0.33259   0.00239   0.75186   1.000
    O143    O    0.36122   0.02783   0.70787   1.000
    O144    O    0.36133   0.97613   0.79525   1.000
    O145    O    0.27943   0.00212   0.75152   1.000
    C146    C    0.54327   0.90703   0.31017   1.000
    O147    O    0.52862   0.87912   0.37485   1.000
    O148    O    0.54898   0.95859   0.33410   1.000
    O149    O    0.54850   0.90476   0.25069   1.000
    C150    C    0.54354   0.09340   0.19094   1.000
    O151    O    0.52952   0.12158   0.12620   1.000
    O152    O    0.54840   0.09563   0.25077   1.000
    O153    O    0.54941   0.04188   0.16717   1.000
    C154    C    0.40840   0.04188   0.44220   1.000
    O155    O    0.45924   0.04843   0.41689   1.000
    O156    O    0.38015   0.02814   0.37799   1.000
    O157    O    0.40612   0.04676   0.50286   1.000
    C158    C    0.59189   0.95821   0.94173   1.000
    O159    O    0.62008   0.97249   0.87739   1.000
    O160    O    0.59440   0.95315   0.00243   1.000
    O161    O    0.54104   0.95224   0.91627   1.000
    C162    C    0.49854   0.16615   0.49989   1.000
    O163    O    0.52514   0.13809   0.45588   1.000
    O164    O    0.49862   0.21953   0.50048   1.000
    O165    O    0.47271   0.13772   0.54454   1.000
    C166    C    0.40970   0.95907   0.06093   1.000
    O167    O    0.38100   0.97269   0.12508   1.000
    O168    O    0.40735   0.95457   0.99947   1.000
    O169    O    0.46035   0.95216   0.08628   1.000
    C170    C    0.00072   0.83498   0.00041   1.000
    O171    O    0.02698   0.86289   0.04488   1.000
    O172    O    0.00080   0.78160   0.99998   1.000
    O173    O    0.97444   0.86347   0.95597   1.000
    C174    C    0.04355   0.09340   0.19094   1.000
    O175    O    0.04841   0.09563   0.25077   1.000
    O176    O    0.04942   0.04188   0.16717   1.000
    O177    O    0.02952   0.12158   0.12620   1.000
    C178    C    0.16758   0.99999   0.25163   1.000
    O179    O    0.22076   0.00009   0.25154   1.000
    O180    O    0.13920   0.97395   0.20765   1.000
    O181    O    0.13888   0.02615   0.29536   1.000
    C182    C    0.95881   0.09527   0.80639   1.000
    O183    O    0.97279   0.12282   0.87152   1.000
    O184    O    0.95273   0.04358   0.83078   1.000
    C185    C    0.09190   0.95821   0.94173   1.000
    O186    O    0.09441   0.95315   0.00243   1.000
    O187    O    0.12009   0.97249   0.87739   1.000
    O188    O    0.04105   0.95224   0.91627   1.000
    C189    C    0.09189   0.04326   0.55923   1.000
    O190    O    0.09426   0.04833   0.49898   1.000
    O191    O    0.12009   0.02948   0.62386   1.000
    O192    O    0.04085   0.04891   0.58456   1.000
    C193    C    0.99854   0.16615   0.49989   1.000
    O194    O    0.99862   0.21953   0.50048   1.000
    O195    O    0.02515   0.13809   0.45588   1.000
    O196    O    0.97271   0.13772   0.54454   1.000
    C197    C    0.90839   0.04188   0.44220   1.000
    O198    O    0.88014   0.02814   0.37800   1.000
    O199    O    0.90611   0.04676   0.50286   1.000
    O200    O    0.95924   0.04843   0.41689   1.000
    C201    C    0.95709   0.90559   0.69556   1.000
    O202    O    0.95160   0.95754   0.67133   1.000
    O203    O    0.97093   0.87816   0.62999   1.000
    C204    C    0.90970   0.95907   0.06093   1.000
    O205    O    0.90734   0.95457   0.99947   1.000
    O206    O    0.96035   0.95216   0.08628   1.000
    O207    O    0.88099   0.97269   0.12508   1.000
    C208    C    0.04328   0.90703   0.31017   1.000
    O209    O    0.04899   0.95859   0.33410   1.000
    O210    O    0.04851   0.90476   0.25069   1.000
    O211    O    0.02863   0.87912   0.37484   1.000
    C212    C    0.83259   0.00239   0.75186   1.000
    O213    O    0.77943   0.00212   0.75153   1.000
    O214    O    0.86132   0.97613   0.79524   1.000
    O215    O    0.86122   0.02783   0.70787   1.000
    O216    O    0.95298   0.08568   0.75876   1.000
    O217    O    0.95180   0.91531   0.74304   1.000
    O218    O    0.45181   0.41532   0.74304   1.000
    O219    O    0.45299   0.08568   0.75876   1.000
    O220    O    0.45181   0.91531   0.74304   1.000
    O221    O    0.95180   0.41532   0.74304   1.000
    O222    O    0.95298   0.58568   0.75876   1.000
    O223    O    0.45299   0.58568   0.75876   1.000
loop_
    _geom_bond_atom_site_label_1
    _geom_bond_atom_site_label_2
    _geom_bond_distance
    _geom_bond_site_symmetry_2
    _ccdc_geom_bond_type
    C32    O33       1.01270      .   S
    Zr1    O33       2.08082      .   S
    C32    O34       1.01053      .   S
    Zr15   O34       2.07768      .   S
    C32    O35       1.10341      .   S
    N22    O35       2.17459      .   S
    C36    O37       0.85990  1_556   S
    Zr6    O37       1.89909      .   S
    C36    O38       1.11554      .   S
    N18    O38       2.18996      .   S
    C36    O39       1.12203      .   S
    Zr8    O39       2.23805      .   S
    C40    O41       1.11795      .   S
    N16    O41       2.19198      .   S
    C40    O42       1.12846      .   S
    Zr8    O42       2.25782      .   S
    C43    O44       1.01463  1_554   S
    Zr8    O44       2.08599      .   S
    C43    O45       1.01254      .   S
    Zr6    O45       2.08007      .   S
    C43    O46       1.10324  1_554   S
    N25    O46       2.17440      .   S
    C47    O48       0.84354      .   S
    Zr6    O48       1.88093      .   S
    C47    O49       1.12478      .   S
    Zr15   O49       2.24698      .   S
    C47    O50       1.11721      .   S
    N31    O50       2.19166      .   S
    C51    O52       1.00547      .   S
    Zr1    O52       2.07072      .   S
    C51    O53       1.00858      .   S
    Zr8    O53       2.07595      .   S
    C51    O54       1.10328      .   S
    N28    O54       2.17289      .   S
    C55    O56       1.12161      .   S
    Zr15   O56       2.23972      .   S
    C55    O57       1.11427      .   S
    N17    O57       2.18890      .   S
    C55    O58       0.85921      .   S
    Zr1    O58       1.90549      .   S
    C59    O60       1.11644      .   S
    N16    O60       2.19040  1_556   S
    C59    O61       1.12272      .   S
    Zr6    O61       2.24247      .   S
    C59    O62       0.84782      .   S
    Zr15   O62       1.88648      .   S
    C63    O64       0.85359      .   S
    Zr15   O64       1.89207      .   S
    C63    O65       1.12258      .   S
    Zr1    O65       2.24008      .   S
    C63    O66       1.11614      .   S
    N18    O66       2.19022      .   S
    C67    O68       1.10355      .   S
    N21    O68       2.17351      .   S
    C67    O69       1.01095      .   S
    Zr15   O69       2.08000      .   S
    C67    O70       1.01162      .   S
    Zr6    O70       2.08070      .   S
    C71    O72       0.86984  1_554   S
    Zr8    O72       1.91185      .   S
    C71    O73       1.11852      .   S
    Zr6    O73       2.23175      .   S
    C71    O74       1.11536      .   S
    N17    O74       2.18996      .   S
    C75    O76       1.11912      .   S
    N31    O76       2.19323      .   S
    C75    O77       1.13064      .   S
    Zr1    O77       2.26373      .   S
    C78    O79       1.11664      .   S
    N27    O79       2.19090  1_556   S
    C78    O80       1.12268      .   S
    Zr4    O80       2.24243      .   S
    C78    O81       0.84796      .   S
    Zr13   O81       1.88661      .   S
    C82    O83       1.01162      .   S
    Zr4    O83       2.08070      .   S
    C82    O84       1.10355      .   S
    N17    O84       2.17351      .   S
    C82    O85       1.01095      .   S
    Zr13   O85       2.07999      .   S
    C86    O87       1.10324  1_554   S
    N20    O87       2.17440      .   S
    C86    O88       1.01250      .   S
    Zr4    O88       2.08040      .   S
    C86    O89       1.01455  1_454   S
    Zr10   O89       2.08589      .   S
    C90    O91       1.11774      .   S
    N27    O91       2.19134  1_455   S
    C90    O92       1.12846      .   S
    Zr10   O92       2.25784      .   S
    C93    O94       1.11722      .   S
    N30    O94       2.19168  1_655   S
    C93    O95       1.12478      .   S
    Zr13   O95       2.24698      .   S
    C93    O96       0.84354      .   S
    Zr4    O96       1.88093      .   S
    C97    O98       1.00864      .   S
    Zr10   O98       2.07600      .   S
    C97    O99       1.00541      .   S
    Zr3    O99       2.07067      .   S
    C97    O100      1.10327      .   S
    N18    O100      2.17289      .   S
    C101   O102      0.86984  1_554   S
    Zr10   O102      1.91185      .   S
    C101   O103      1.11536      .   S
    N21    O103      2.18996      .   S
    C101   O104      1.11859      .   S
    Zr4    O104      2.23197  1_455   S
    C105   O106      0.86004  1_556   S
    Zr4    O106      1.89921      .   S
    C105   O107      1.12206      .   S
    Zr10   O107      2.23824  1_655   S
    C105   O108      1.11552      .   S
    N28    O108      2.18980      .   S
    C109   O110      1.01276      .   S
    Zr3    O110      2.08086      .   S
    C109   O111      1.10341      .   S
    N29    O111      2.17459      .   S
    C109   O112      1.01056  1_655   S
    Zr13   O112      2.07769      .   S
    C113   O114      1.11913      .   S
    N30    O114      2.19327      .   S
    C113   O115      1.13064      .   S
    Zr3    O115      2.26373      .   S
    C116   O117      0.85359      .   S
    Zr13   O117      1.89207      .   S
    C116   O118      1.12265      .   S
    Zr3    O118      2.24030  1_655   S
    C116   O119      1.11612      .   S
    N28    O119      2.19018      .   S
    C120   O121      1.12168      .   S
    Zr13   O121      2.23994  1_455   S
    C120   O122      0.85921      .   S
    Zr3    O122      1.90549      .   S
    C120   O123      1.11426      .   S
    N21    O123      2.18890      .   S
    C124   O125      1.11912      .   S
    N22    O125      2.19323      .   S
    C124   O126      1.13071      .   S
    Zr0    O126      2.26395  1_545   S
    C127   O128      1.12853      .   S
    Zr9    O128      2.25806  1_565   S
    C127   O129      1.11795      .   S
    N25    O129      2.19198      .   S
    C130   O131      1.01098  1_565   S
    Zr14   O131      2.08001      .   S
    C130   O132      1.10356  1_565   S
    N24    O132      2.17350      .   S
    C130   O133      1.01168      .   S
    Zr7    O133      2.08075      .   S
    C134   O135      1.11604      .   S
    N23    O135      2.18992      .   S
    C134   O136      0.85358      .   S
    Zr14   O136      1.89207      .   S
    C134   O137      1.12258      .   S
    Zr0    O137      2.24008      .   S
    C138   O139      1.01253      .   S
    Zr7    O139      2.08007      .   S
    C138   O140      1.01464  1_554   S
    Zr9    O140      2.08598      .   S
    C138   O141      1.10324  1_554   S
    N16    O141      2.17440      .   S
    C142   O143      1.00548      .   S
    Zr0    O143      2.07073      .   S
    C142   O144      1.00871  1_545   S
    Zr9    O144      2.07594      .   S
    C142   O145      1.10327      .   S
    N19    O145      2.17290      .   S
    C146   O147      1.11721      .   S
    N22    O147      2.19166      .   S
    C146   O148      1.12485      .   S
    Zr14   O148      2.24719  1_545   S
    C146   O149      0.84354      .   S
    Zr7    O149      1.88093      .   S
    C150   O151      1.11644      .   S
    N25    O151      2.19041  1_556   S
    C150   O152      0.84782      .   S
    Zr14   O152      1.88648      .   S
    C150   O153      1.12279      .   S
    Zr7    O153      2.24268  1_565   S
    C154   O155      1.12161      .   S
    Zr14   O155      2.23972      .   S
    C154   O156      1.11427      .   S
    N26    O156      2.18893      .   S
    C154   O157      0.85921      .   S
    Zr0    O157      1.90549      .   S
    C158   O159      1.11563      .   S
    N23    O159      2.19013  1_545   S
    C158   O160      0.86004  1_556   S
    Zr7    O160      1.89922      .   S
    C158   O161      1.12199      .   S
    Zr9    O161      2.23802      .   S
    C162   O163      1.01053      .   S
    Zr14   O163      2.07766      .   S
    C162   O164      1.10341      .   S
    N31    O164      2.17459      .   S
    C162   O165      1.01270      .   S
    Zr0    O165      2.08083      .   S
    C166   O167      1.11537      .   S
    N26    O167      2.18999  1_545   S
    C166   O168      0.86984  1_554   S
    Zr9    O168      1.91185      .   S
    C166   O169      1.11852      .   S
    Zr7    O169      2.23175      .   S
    C170   O171      1.01257      .   S
    Zr5    O171      2.08009      .   S
    C170   O172      1.10325  1_554   S
    N27    O172      2.17441      .   S
    C170   O173      1.01468  1_454   S
    Zr11   O173      2.08601      .   S
    C174   O175      0.84782      .   S
    Zr12   O175      1.88648      .   S
    C174   O176      1.12279      .   S
    Zr5    O176      2.24268  1_565   S
    C174   O177      1.11645      .   S
    N20    O177      2.19045  1_556   S
    C178   O179      1.10356  1_565   S
    N26    O179      2.17350      .   S
    C178   O180      1.01168      .   S
    Zr5    O180      2.08074      .   S
    C178   O181      1.01098  1_565   S
    Zr12   O181      2.08000      .   S
    C182   O183      1.11796      .   S
    N20    O183      2.19199  1_455   S
    C182   O184      1.12853      .   S
    Zr11   O184      2.25805  1_565   S
    C185   O186      0.86004  1_556   S
    Zr5    O186      1.89921      .   S
    C185   O187      1.11565      .   S
    N19    O187      2.19019  1_545   S
    C185   O188      1.12205      .   S
    Zr11   O188      2.23823  1_655   S
    C189   O190      0.85359      .   S
    Zr12   O190      1.89207      .   S
    C189   O191      1.11602      .   S
    N19    O191      2.18987      .   S
    C189   O192      1.12265      .   S
    Zr2    O192      2.24030  1_655   S
    C193   O194      1.10341      .   S
    N30    O194      2.17459      .   S
    C193   O195      1.01056  1_655   S
    Zr12   O195      2.07769      .   S
    C193   O196      1.01276      .   S
    Zr2    O196      2.08087      .   S
    C197   O198      1.11413      .   S
    N24    O198      2.18896      .   S
    C197   O199      0.85921      .   S
    Zr2    O199      1.90549      .   S
    C197   O200      1.12168      .   S
    Zr12   O200      2.23994  1_455   S
    C201   O202      1.13072      .   S
    Zr2    O202      2.26395  1_545   S
    C201   O203      1.11917      .   S
    N29    O203      2.19338      .   S
    C204   O205      0.86984  1_554   S
    Zr11   O205      1.91185      .   S
    C204   O206      1.11859      .   S
    Zr5    O206      2.23198  1_455   S
    C204   O207      1.11539      .   S
    N24    O207      2.19007  1_545   S
    C208   O209      1.12485      .   S
    Zr12   O209      2.24721  1_545   S
    C208   O210      0.84354      .   S
    Zr5    O210      1.88094      .   S
    C208   O211      1.11717      .   S
    N29    O211      2.19156  1_655   S
    C212   O213      1.10327      .   S
    N23    O213      2.17289      .   S
    C212   O214      1.00863  1_545   S
    Zr11   O214      2.07599      .   S
    C212   O215      1.00550      .   S
    Zr2    O215      2.07074      .   S
    C182   O216      0.70877      .   S
    Zr2    O216      1.92680      .   S
    C201   O217      0.70518      .   S
    Zr11   O217      1.91422      .   S
    Zr8    O218      1.91422      .   S
    C75    O218      0.70518      .   S
    Zr0    O219      1.92680      .   S
    C127   O219      0.70877      .   S
    C124   O220      0.70517      .   S
    Zr9    O220      1.91421      .   S
    C113   O221      0.70518      .   S
    Zr10   O221      1.91422      .   S
    Zr3    O222      1.92680      .   S
    C90    O222      0.70877      .   S
    Zr1    O223      1.92680      .   S
    C40    O223      0.70877      .   S
