# CIF file generated by openbabel 2.4.90, see http://openbabel.sf.net
data_I
_chemical_name_common ''
_cell_length_a 14.017
_cell_length_b 15.199
_cell_length_c 15.249
_cell_angle_alpha 85.04
_cell_angle_beta 87.603
_cell_angle_gamma 83.928
_space_group_name_H-M_alt 'P 1'
_space_group_name_Hall 'P 1'
loop_
    _symmetry_equiv_pos_as_xyz
    x,y,z
loop_
    _atom_site_label
    _atom_site_type_symbol
    _atom_site_fract_x
    _atom_site_fract_y
    _atom_site_fract_z
    _atom_site_occupancy
    Lv0     Lv   0.23356   0.38896   0.16107   1.000
    Lv1     Lv   0.71212   0.88615   0.15713   1.000
    Lv2     Lv   0.28795   0.11382   0.84287   1.000
    Lv3     Lv   0.76650   0.61100   0.83892   1.000
    Lv4     Lv   0.80900   0.11260   0.34113   1.000
    Lv5     Lv   0.19106   0.88737   0.65887   1.000
