# CIF file generated by openbabel 2.4.90, see http://openbabel.sf.net
data_I
_chemical_name_common ''
_cell_length_a 14.017
_cell_length_b 15.199
_cell_length_c 15.249
_cell_angle_alpha 85.04
_cell_angle_beta 87.603
_cell_angle_gamma 83.928
_space_group_name_H-M_alt 'P 1'
_space_group_name_Hall 'P 1'
loop_
    _symmetry_equiv_pos_as_xyz
    x,y,z
loop_
    _atom_site_label
    _atom_site_type_symbol
    _atom_site_fract_x
    _atom_site_fract_y
    _atom_site_fract_z
    _atom_site_occupancy
    C0      C    0.10917   0.90032   0.15991   1.000
    C1      C    0.31284   0.88119   0.15500   1.000
    C2      C    0.89089   0.09964   0.84009   1.000
    C3      C    0.68721   0.11877   0.84499   1.000
    C4      C    0.79231   0.86865   0.01897   1.000
    C5      C    0.76985   0.90666   0.29746   1.000
    C6      C    0.64543   0.92851   0.01833   1.000
    C7      C    0.06300   0.87125   0.89100   1.000
    C8      C    0.05806   0.86192   0.72934   1.000
    C9      C    0.36352   0.90285   0.85774   1.000
    C10     C    0.96636   0.88390   0.02461   1.000
    C11     C    0.94681   0.91293   0.29236   1.000
    C12     C    0.35455   0.84096   0.44327   1.000
    C13     C    0.05467   0.93379   0.43877   1.000
    C14     C    0.36779   0.60273   0.11826   1.000
    C15     C    0.05507   0.93361   0.60289   1.000
    C16     C    0.36776   0.43766   0.11608   1.000
    C17     C    0.06325   0.20247   0.12506   1.000
    C18     C    0.36478   0.30945   0.20060   1.000
    C19     C    0.35860   0.14586   0.19473   1.000
    C20     C    0.46906   0.91737   0.02192   1.000
    C21     C    0.07200   0.61394   0.20603   1.000
    C22     C    0.64194   0.83649   0.29528   1.000
    C23     C    0.46457   0.83681   0.28794   1.000
    C24     C    0.20776   0.13132   0.98103   1.000
    C25     C    0.23022   0.09332   0.70254   1.000
    C26     C    0.35464   0.07145   0.98167   1.000
    C27     C    0.93709   0.12872   0.10903   1.000
    C28     C    0.94199   0.13808   0.27068   1.000
    C29     C    0.63657   0.09713   0.14223   1.000
    C30     C    0.03370   0.11607   0.97538   1.000
    C31     C    0.05327   0.08704   0.70763   1.000
    C32     C    0.64550   0.15901   0.55673   1.000
    C33     C    0.94538   0.06619   0.56123   1.000
    C34     C    0.63224   0.39724   0.88171   1.000
    C35     C    0.94498   0.06636   0.39711   1.000
    C36     C    0.63228   0.56232   0.88389   1.000
    C37     C    0.93680   0.79748   0.87495   1.000
    C38     C    0.63528   0.69053   0.79938   1.000
    C39     C    0.64146   0.85412   0.80525   1.000
    C40     C    0.53101   0.08259   0.97809   1.000
    C41     C    0.92805   0.38602   0.79399   1.000
    C42     C    0.35813   0.16348   0.70473   1.000
    C43     C    0.53550   0.16317   0.71207   1.000
    C44     C    0.66009   0.88226   0.15695   1.000
    C45     C    0.76490   0.88625   0.15816   1.000
    C46     C    0.82246   0.87980   0.08109   1.000
    C47     C    0.21851   0.89403   0.98422   1.000
    C48     C    0.20764   0.88709   0.33003   1.000
    C49     C    0.81052   0.89834   0.23585   1.000
    C50     C    0.60940   0.90518   0.07928   1.000
    C51     C    0.21673   0.71920   0.16307   1.000
    C52     C    0.21393   0.88788   0.88700   1.000
    C53     C    0.12738   0.87627   0.84937   1.000
    C54     C    0.12476   0.87275   0.75894   1.000
    C55     C    0.21048   0.16165   0.15821   1.000
    C56     C    0.29463   0.89462   0.83022   1.000
    C57     C    0.20642   0.88516   0.60942   1.000
    C58     C    0.21974   0.62045   0.16261   1.000
    C59     C    0.92007   0.88709   0.08357   1.000
    C60     C    0.90873   0.90381   0.23351   1.000
    C61     C    0.20868   0.88314   0.70701   1.000
    C62     C    0.28708   0.86169   0.47761   1.000
    C63     C    0.20482   0.88713   0.42845   1.000
    C64     C    0.11981   0.91325   0.47479   1.000
    C65     C    0.20484   0.06418   0.15393   1.000
    C66     C    0.30398   0.56969   0.13756   1.000
    C67     C    0.12044   0.91252   0.56586   1.000
    C68     C    0.21677   0.34192   0.16240   1.000
    C69     C    0.30365   0.47839   0.13721   1.000
    C70     C    0.13147   0.22467   0.14126   1.000
    C71     C    0.29946   0.28379   0.18201   1.000
    C72     C    0.29632   0.19309   0.17955   1.000
    C73     C    0.21891   0.43960   0.16226   1.000
    C74     C    0.51090   0.90112   0.08083   1.000
    C75     C    0.13863   0.57579   0.18621   1.000
    C76     C    0.60703   0.85642   0.23320   1.000
    C77     C    0.50837   0.85526   0.22988   1.000
    C78     C    0.33998   0.11771   0.84305   1.000
    C79     C    0.23517   0.11372   0.84183   1.000
    C80     C    0.17760   0.12017   0.91891   1.000
    C81     C    0.78163   0.10593   0.01578   1.000
    C82     C    0.79240   0.11289   0.66998   1.000
    C83     C    0.18955   0.10164   0.76415   1.000
    C84     C    0.39066   0.09478   0.92072   1.000
    C85     C    0.78331   0.28077   0.83693   1.000
    C86     C    0.78618   0.11209   0.11300   1.000
    C87     C    0.87270   0.12371   0.15065   1.000
    C88     C    0.87531   0.12723   0.24107   1.000
    C89     C    0.78958   0.83832   0.84179   1.000
    C90     C    0.70546   0.10535   0.16976   1.000
    C91     C    0.79363   0.11481   0.39058   1.000
    C92     C    0.78030   0.37952   0.83739   1.000
    C93     C    0.08000   0.11288   0.91643   1.000
    C94     C    0.09134   0.09617   0.76648   1.000
    C95     C    0.79139   0.11684   0.29299   1.000
    C96     C    0.71296   0.13828   0.52239   1.000
    C97     C    0.79522   0.11285   0.57155   1.000
    C98     C    0.88023   0.08672   0.52521   1.000
    C99     C    0.79522   0.93579   0.84607   1.000
    C100    C    0.69605   0.43028   0.86242   1.000
    C101    C    0.87961   0.08745   0.43414   1.000
    C102    C    0.78328   0.65805   0.83760   1.000
    C103    C    0.69639   0.52158   0.86277   1.000
    C104    C    0.86858   0.77529   0.85875   1.000
    C105    C    0.70060   0.71618   0.81798   1.000
    C106    C    0.70374   0.80688   0.82044   1.000
    C107    C    0.78114   0.56037   0.83773   1.000
    C108    C    0.48917   0.09885   0.91917   1.000
    C109    C    0.86141   0.42417   0.81380   1.000
    C110    C    0.39304   0.14355   0.76680   1.000
    C111    C    0.49170   0.14472   0.77013   1.000
    C112    C    0.46056   0.87721   0.15488   1.000
    C113    C    0.96301   0.89886   0.15858   1.000
    C114    C    0.29317   0.89349   0.74263   1.000
    C115    C    0.13330   0.31234   0.14271   1.000
    C116    C    0.28918   0.86040   0.56534   1.000
    C117    C    0.13709   0.48787   0.18650   1.000
    C118    C    0.53950   0.12276   0.84512   1.000
    C119    C    0.03706   0.10111   0.84141   1.000
    C120    C    0.70690   0.10650   0.25735   1.000
    C121    C    0.86675   0.68762   0.85729   1.000
    C122    C    0.71086   0.13957   0.43466   1.000
    C123    C    0.86296   0.51209   0.81351   1.000
    C124    C    0.29898   0.90418   0.01561   1.000
    C125    C    0.13953   0.88891   0.02810   1.000
    C126    C    0.28783   0.86387   0.29226   1.000
    C127    C    0.12858   0.91118   0.29197   1.000
    C128    C    0.12378   0.03781   0.14089   1.000
    C129    C    0.29589   0.75222   0.14400   1.000
    C130    C    0.13696   0.76250   0.18157   1.000
    C131    C    0.28407   0.01515   0.16295   1.000
    C132    C    0.70116   0.09578   0.98437   1.000
    C133    C    0.86062   0.11105   0.97192   1.000
    C134    C    0.71221   0.13610   0.70774   1.000
    C135    C    0.87146   0.08879   0.70803   1.000
    C136    C    0.87628   0.96215   0.85911   1.000
    C137    C    0.70415   0.24775   0.85600   1.000
    C138    C    0.86308   0.23746   0.81844   1.000
    C139    C    0.71599   0.98482   0.83705   1.000
    O140    O    0.30591   0.89268   0.08531   1.000
    O141    O    0.25875   0.89910   0.99992   1.000
    O142    O    0.78390   0.10901   0.06439   1.000
    O143    O    0.82112   0.10849   0.99385   1.000
    O144    O    0.74140   0.10085   0.00007   1.000
    O145    O    0.62742   0.91685   0.04881   1.000
    O146    O    0.80738   0.87423   0.05003   1.000
    O147    O    0.48998   0.90924   0.05138   1.000
    O148    O    0.94322   0.88550   0.05409   1.000
    O149    O    0.12435   0.89462   0.09400   1.000
    O150    O    0.17902   0.89147   0.00616   1.000
    O151    O    0.56015   0.90315   0.08006   1.000
    O152    O    0.63475   0.89372   0.11811   1.000
    O153    O    0.48573   0.88916   0.11786   1.000
    O154    O    0.87127   0.88345   0.08233   1.000
    O155    O    0.79368   0.88303   0.11963   1.000
    O156    O    0.94154   0.89298   0.12107   1.000
    O157    O    0.90490   0.12622   0.12984   1.000
    O158    O    0.82944   0.11790   0.13182   1.000
    O159    O    0.74582   0.10872   0.14138   1.000
    O160    O    0.33570   0.45803   0.12664   1.000
    O161    O    0.33589   0.58621   0.12791   1.000
    O162    O    0.09736   0.21357   0.13316   1.000
    O163    O    0.30382   0.52404   0.13739   1.000
    O164    O    0.26128   0.45899   0.14974   1.000
    O165    O    0.26186   0.59507   0.15009   1.000
    O166    O    0.16431   0.05100   0.14741   1.000
    O167    O    0.11647   0.96907   0.15040   1.000
    O168    O    0.13239   0.26850   0.14199   1.000
    O169    O    0.17098   0.19316   0.14973   1.000
    O170    O    0.67102   0.10124   0.15600   1.000
    O171    O    0.17504   0.32713   0.15255   1.000
    O172    O    0.30436   0.81670   0.14950   1.000
    O173    O    0.25631   0.73571   0.15354   1.000
    O174    O    0.87401   0.12547   0.19586   1.000
    O175    O    0.20766   0.11291   0.15607   1.000
    O176    O    0.24445   0.03966   0.15844   1.000
    O177    O    0.38670   0.87920   0.15494   1.000
    O178    O    0.48446   0.86623   0.19238   1.000
    O179    O    0.29846   0.94817   0.15897   1.000
    O180    O    0.30034   0.87253   0.22363   1.000
    O181    O    0.71250   0.88425   0.15756   1.000
    O182    O    0.63356   0.86934   0.19508   1.000
    O183    O    0.78771   0.89230   0.19701   1.000
    O184    O    0.25340   0.17737   0.16888   1.000
    O185    O    0.03609   0.89959   0.15924   1.000
    O186    O    0.93587   0.90133   0.19605   1.000
    O187    O    0.12306   0.83141   0.17074   1.000
    O188    O    0.11887   0.90575   0.22594   1.000
    O189    O    0.21784   0.39076   0.16233   1.000
    O190    O    0.17800   0.46373   0.17438   1.000
    O191    O    0.25812   0.31286   0.17220   1.000
    O192    O    0.21824   0.66982   0.16284   1.000
    O193    O    0.17919   0.59812   0.17441   1.000
    O194    O    0.17684   0.74085   0.17232   1.000
    O195    O    0.70618   0.10592   0.21356   1.000
    O196    O    0.29789   0.23844   0.18078   1.000
    O197    O    0.32746   0.16947   0.18714   1.000
    O198    O    0.33212   0.29662   0.19130   1.000
    O199    O    0.13786   0.53183   0.18635   1.000
    O200    O    0.10532   0.59486   0.19612   1.000
    O201    O    0.55770   0.85584   0.23154   1.000
    O202    O    0.48647   0.84603   0.25891   1.000
    O203    O    0.62449   0.84646   0.26424   1.000
    O204    O    0.85963   0.90107   0.23468   1.000
    O205    O    0.92777   0.90837   0.26294   1.000
    O206    O    0.79019   0.90250   0.26666   1.000
    O207    O    0.90865   0.13265   0.25588   1.000
    O208    O    0.83335   0.12203   0.26703   1.000
    O209    O    0.74914   0.11167   0.27517   1.000
    O210    O    0.16811   0.89913   0.31100   1.000
    O211    O    0.24774   0.87548   0.31114   1.000
    O212    O    0.79251   0.11583   0.34178   1.000
    O213    O    0.20623   0.88711   0.37924   1.000
    O214    O    0.83662   0.10113   0.41236   1.000
    O215    O    0.75225   0.12719   0.41262   1.000
    O216    O    0.91229   0.07690   0.41562   1.000
    O217    O    0.16232   0.90019   0.45162   1.000
    O218    O    0.24595   0.87441   0.45303   1.000
    O219    O    0.87992   0.08709   0.47967   1.000
    O220    O    0.71191   0.13893   0.47853   1.000
    O221    O    0.08724   0.92352   0.45678   1.000
    O222    O    0.32082   0.85132   0.46044   1.000
    O223    O    0.12012   0.91289   0.52033   1.000
    O224    O    0.28813   0.86105   0.52147   1.000
    O225    O    0.67923   0.14865   0.53956   1.000
    O226    O    0.75409   0.12557   0.54697   1.000
    O227    O    0.91281   0.07645   0.54322   1.000
    O228    O    0.83773   0.09979   0.54838   1.000
    O229    O    0.24780   0.87278   0.58738   1.000
    O230    O    0.08775   0.92307   0.58438   1.000
    O231    O    0.16343   0.89884   0.58764   1.000
    O232    O    0.79381   0.11287   0.62076   1.000
    O233    O    0.20755   0.88415   0.65822   1.000
    O234    O    0.75230   0.12450   0.68886   1.000
    O235    O    0.83193   0.10084   0.68901   1.000
    O236    O    0.20989   0.09748   0.73334   1.000
    O237    O    0.37558   0.15352   0.73576   1.000
    O238    O    0.25092   0.88831   0.72482   1.000
    O239    O    0.16672   0.87795   0.73298   1.000
    O240    O    0.07230   0.09161   0.73706   1.000
    O241    O    0.69971   0.12744   0.77636   1.000
    O242    O    0.88118   0.09422   0.77406   1.000
    O243    O    0.51360   0.15394   0.74110   1.000
    O244    O    0.09141   0.86734   0.74414   1.000
    O245    O    0.29390   0.89406   0.78643   1.000
    O246    O    0.12607   0.87451   0.80415   1.000
    O247    O    0.14044   0.09890   0.76531   1.000
    O248    O    0.21236   0.10768   0.80299   1.000
    O249    O    0.06420   0.09864   0.80395   1.000
    O250    O    0.44237   0.14414   0.76846   1.000
    O251    O    0.36651   0.13063   0.80493   1.000
    O252    O    0.51560   0.13374   0.80763   1.000
    O253    O    0.89473   0.40510   0.80390   1.000
    O254    O    0.66794   0.70335   0.80868   1.000
    O255    O    0.67260   0.83050   0.81284   1.000
    O256    O    0.86219   0.46813   0.81366   1.000
    O257    O    0.82205   0.53623   0.82562   1.000
    O258    O    0.82086   0.40185   0.82559   1.000
    O259    O    0.70217   0.76153   0.81921   1.000
    O260    O    0.74194   0.68711   0.82779   1.000
    O261    O    0.82319   0.25912   0.82769   1.000
    O262    O    0.87699   0.16855   0.82927   1.000
    O263    O    0.74666   0.82260   0.83112   1.000
    O264    O    0.32908   0.89874   0.84398   1.000
    O265    O    0.25428   0.89125   0.85861   1.000
    O266    O    0.78180   0.33015   0.83716   1.000
    O267    O    0.74373   0.26426   0.84647   1.000
    O268    O    0.70160   0.05180   0.84102   1.000
    O269    O    0.75561   0.96030   0.84156   1.000
    O270    O    0.73818   0.40490   0.84990   1.000
    O271    O    0.78221   0.60921   0.83767   1.000
    O272    O    0.82502   0.67284   0.84745   1.000
    O273    O    0.73877   0.54098   0.85025   1.000
    O274    O    0.96398   0.10038   0.84075   1.000
    O275    O    0.88359   0.03090   0.84960   1.000
    O276    O    0.87576   0.10534   0.90601   1.000
    O277    O    0.05853   0.10700   0.87892   1.000
    O278    O    0.79240   0.88705   0.84393   1.000
    O279    O    0.82908   0.80681   0.85027   1.000
    O280    O    0.28757   0.11572   0.84244   1.000
    O281    O    0.20639   0.11694   0.88037   1.000
    O282    O    0.36532   0.10625   0.88189   1.000
    O283    O    0.61336   0.12077   0.84506   1.000
    O284    O    0.69568   0.18326   0.85050   1.000
    O285    O    0.69419   0.10727   0.91468   1.000
    O286    O    0.51433   0.11081   0.88215   1.000
    O287    O    0.83575   0.94897   0.85259   1.000
    O288    O    0.17066   0.88207   0.86818   1.000
    O289    O    0.09519   0.87376   0.87018   1.000
    O290    O    0.86767   0.73146   0.85802   1.000
    O291    O    0.90269   0.78639   0.86685   1.000
    O292    O    0.69622   0.47593   0.86259   1.000
    O293    O    0.66415   0.41376   0.87206   1.000
    O294    O    0.66434   0.54195   0.87333   1.000
    O295    O    0.21622   0.89095   0.93561   1.000
    O296    O    0.12880   0.11652   0.91767   1.000
    O297    O    0.05685   0.11447   0.94590   1.000
    O298    O    0.19268   0.12574   0.94997   1.000
    O299    O    0.43991   0.09682   0.91995   1.000
    O300    O    0.51009   0.09072   0.94863   1.000
    O301    O    0.37265   0.08312   0.95120   1.000
    O302    O    0.21100   0.89076   0.15746   1.000
    O303    O    0.78905   0.10921   0.84254   1.000
loop_
    _geom_bond_atom_site_label_1
    _geom_bond_atom_site_label_2
    _geom_bond_distance
    _geom_bond_site_symmetry_2
    _ccdc_geom_bond_type
    C124   O140      1.06884      .   S
    C1     O140      1.06884      .   S
    C124   O141      0.63642  1_554   S
    C47    O141      0.63642      .   S
    C81    O142      0.74899      .   S
    C86    O142      0.74899      .   S
    C81    O143      0.63768  1_554   S
    C133   O143      0.63768      .   S
    C81    O144      0.63642      .   S
    C132   O144      0.63642  1_556   S
    C6     O145      0.54457      .   S
    C50    O145      0.54457      .   S
    C4     O146      0.54343      .   S
    C46    O146      0.54343      .   S
    C20    O147      0.54478      .   S
    C74    O147      0.54478      .   S
    C10    O148      0.54402      .   S
    C59    O148      0.54402      .   S
    C125   O149      1.02767      .   S
    C0     O149      1.02767      .   S
    C125   O150      0.63767      .   S
    C47    O150      0.63767  1_556   S
    C50    O151      0.69387      .   S
    C74    O151      0.69387      .   S
    C50    O152      0.70278      .   S
    C44    O152      0.70278      .   S
    C74    O153      0.67484      .   S
    C112   O153      0.67484      .   S
    C46    O154      0.69329      .   S
    C59    O154      0.69329      .   S
    C46    O155      0.70101      .   S
    C45    O155      0.70101      .   S
    C59    O156      0.67423      .   S
    C113   O156      0.67423      .   S
    C27    O157      0.54348      .   S
    C87    O157      0.54348      .   S
    C86    O158      0.69873      .   S
    C87    O158      0.69873      .   S
    C86    O159      0.70125      .   S
    C90    O159      0.70125      .   S
    C16    O160      0.54483      .   S
    C69    O160      0.54483      .   S
    C14    O161      0.54455      .   S
    C66    O161      0.54455      .   S
    C17    O162      0.54582      .   S
    C70    O162      0.54582      .   S
    C69    O163      0.69433      .   S
    C66    O163      0.69433      .   S
    C69    O164      0.70277      .   S
    C73    O164      0.70277      .   S
    C66    O165      0.69927      .   S
    C58    O165      0.69927      .   S
    C128   O166      0.63641      .   S
    C65    O166      0.63641      .   S
    C128   O167      1.05757  1_545   S
    C0     O167      1.05757      .   S
    C70    O168      0.66880      .   S
    C115   O168      0.66880      .   S
    C70    O169      0.70132      .   S
    C55    O169      0.70132      .   S
    C29    O170      0.54608      .   S
    C90    O170      0.54608      .   S
    C115   O171      0.67550      .   S
    C68    O171      0.67550      .   S
    C129   O172      1.01069      .   S
    C1     O172      1.01069      .   S
    C129   O173      0.63896      .   S
    C51    O173      0.63896      .   S
    C87    O174      0.69335      .   S
    C88    O174      0.69335      .   S
    C65    O175      0.74951      .   S
    C55    O175      0.74951      .   S
    C65    O176      0.63788      .   S
    C131   O176      0.63788      .   S
    C112   O177      1.03251      .   S
    C1     O177      1.03251      .   S
    C112   O178      0.67433      .   S
    C77    O178      0.67433      .   S
    C1     O179      1.02316      .   S
    C131   O179      1.02316  1_545   S
    C1     O180      1.05309      .   S
    C126   O180      1.05309      .   S
    C44    O181      0.73887      .   S
    C45    O181      0.73887      .   S
    C44    O182      0.70179      .   S
    C76    O182      0.70179      .   S
    C45    O183      0.70213      .   S
    C49    O183      0.70213      .   S
    C55    O184      0.70061      .   S
    C72    O184      0.70061      .   S
    C113   O185      1.02607  1_655   S
    C0     O185      1.02607      .   S
    C113   O186      0.67457      .   S
    C60    O186      0.67457      .   S
    C0     O187      1.04493      .   S
    C130   O187      1.04493      .   S
    C0     O188      1.03313      .   S
    C127   O188      1.03313      .   S
    C73    O189      0.74395      .   S
    C68    O189      0.74395      .   S
    C73    O190      0.67524      .   S
    C117   O190      0.67524      .   S
    C68    O191      0.70354      .   S
    C71    O191      0.70354      .   S
    C58    O192      0.74879      .   S
    C51    O192      0.74879      .   S
    C58    O193      0.70169      .   S
    C75    O193      0.70169      .   S
    C51    O194      0.63506      .   S
    C130   O194      0.63506      .   S
    C90    O195      0.66916      .   S
    C120   O195      0.66916      .   S
    C72    O196      0.69389      .   S
    C71    O196      0.69389      .   S
    C72    O197      0.54463      .   S
    C19    O197      0.54463      .   S
    C71    O198      0.54477      .   S
    C18    O198      0.54477      .   S
    C75    O199      0.66919      .   S
    C117   O199      0.66919      .   S
    C75    O200      0.54592      .   S
    C21    O200      0.54592      .   S
    C77    O201      0.69404      .   S
    C76    O201      0.69404      .   S
    C77    O202      0.54486      .   S
    C23    O202      0.54486      .   S
    C76    O203      0.54426      .   S
    C22    O203      0.54426      .   S
    C60    O204      0.69332      .   S
    C49    O204      0.69332      .   S
    C60    O205      0.54466      .   S
    C11    O205      0.54466      .   S
    C49    O206      0.54409      .   S
    C5     O206      0.54409      .   S
    C88    O207      0.54443      .   S
    C28    O207      0.54443      .   S
    C88    O208      0.70273      .   S
    C95    O208      0.70273      .   S
    C120   O209      0.67644      .   S
    C95    O209      0.67644      .   S
    C127   O210      0.63839      .   S
    C48    O210      0.63839      .   S
    C126   O211      0.63573      .   S
    C48    O211      0.63573      .   S
    C95    O212      0.74371      .   S
    C91    O212      0.74371      .   S
    C48    O213      0.74988      .   S
    C63    O213      0.74988      .   S
    C91    O214      0.70353      .   S
    C101   O214      0.70353      .   S
    C91    O215      0.67557      .   S
    C122   O215      0.67557      .   S
    C35    O216      0.54473      .   S
    C101   O216      0.54473      .   S
    C63    O217      0.69910      .   S
    C64    O217      0.69910      .   S
    C63    O218      0.70157      .   S
    C62    O218      0.70157      .   S
    C101   O219      0.69412      .   S
    C98    O219      0.69412      .   S
    C122   O220      0.66889      .   S
    C96    O220      0.66889      .   S
    C13    O221      0.54427      .   S
    C64    O221      0.54427      .   S
    C12    O222      0.54584      .   S
    C62    O222      0.54584      .   S
    C64    O223      0.69412      .   S
    C67    O223      0.69412      .   S
    C62    O224      0.66889      .   S
    C116   O224      0.66889      .   S
    C96    O225      0.54583      .   S
    C32    O225      0.54583      .   S
    C96    O226      0.70157      .   S
    C97    O226      0.70157      .   S
    C98    O227      0.54426      .   S
    C33    O227      0.54426      .   S
    C98    O228      0.69910      .   S
    C97    O228      0.69910      .   S
    C116   O229      0.67557      .   S
    C57    O229      0.67557      .   S
    C67    O230      0.54473      .   S
    C15    O230      0.54473      .   S
    C67    O231      0.70353      .   S
    C57    O231      0.70353      .   S
    C97    O232      0.74989      .   S
    C82    O232      0.74989      .   S
    C57    O233      0.74371      .   S
    C61    O233      0.74371      .   S
    C82    O234      0.63574      .   S
    C134   O234      0.63574      .   S
    C82    O235      0.63838      .   S
    C135   O235      0.63838      .   S
    C25    O236      0.54410      .   S
    C83    O236      0.54410      .   S
    C42    O237      0.54427      .   S
    C110   O237      0.54427      .   S
    C61    O238      0.67644      .   S
    C114   O238      0.67644      .   S
    C61    O239      0.70272      .   S
    C54    O239      0.70272      .   S
    C31    O240      0.54466      .   S
    C94    O240      0.54466      .   S
    C134   O241      1.05308      .   S
    C3     O241      1.05308      .   S
    C135   O242      1.03314      .   S
    C2     O242      1.03314      .   S
    C43    O243      0.54486      .   S
    C111   O243      0.54486      .   S
    C8     O244      0.54443      .   S
    C54    O244      0.54443      .   S
    C114   O245      0.66915      .   S
    C56    O245      0.66915      .   S
    C54    O246      0.69335      .   S
    C53    O246      0.69335      .   S
    C83    O247      0.69332      .   S
    C94    O247      0.69332      .   S
    C83    O248      0.70213      .   S
    C79    O248      0.70213      .   S
    C94    O249      0.67458      .   S
    C119   O249      0.67458      .   S
    C110   O250      0.69403      .   S
    C111   O250      0.69403      .   S
    C110   O251      0.70178      .   S
    C78    O251      0.70178      .   S
    C111   O252      0.67433      .   S
    C118   O252      0.67433      .   S
    C41    O253      0.54592      .   S
    C109   O253      0.54592      .   S
    C38    O254      0.54478      .   S
    C105   O254      0.54478      .   S
    C39    O255      0.54464      .   S
    C106   O255      0.54464      .   S
    C123   O256      0.66919      .   S
    C109   O256      0.66919      .   S
    C123   O257      0.67524      .   S
    C107   O257      0.67524      .   S
    C109   O258      0.70169      .   S
    C92    O258      0.70169      .   S
    C105   O259      0.69388      .   S
    C106   O259      0.69388      .   S
    C105   O260      0.70353      .   S
    C102   O260      0.70353      .   S
    C138   O261      0.63507      .   S
    C85    O261      0.63507      .   S
    C138   O262      1.04493      .   S
    C2     O262      1.04493      .   S
    C106   O263      0.70061      .   S
    C89    O263      0.70061      .   S
    C56    O264      0.54608      .   S
    C9     O264      0.54608      .   S
    C56    O265      0.70125      .   S
    C52    O265      0.70125      .   S
    C85    O266      0.74879      .   S
    C92    O266      0.74879      .   S
    C85    O267      0.63896      .   S
    C137   O267      0.63896      .   S
    C139   O268      1.02317  1_565   S
    C3     O268      1.02317      .   S
    C139   O269      0.63787      .   S
    C99    O269      0.63787      .   S
    C92    O270      0.69926      .   S
    C100   O270      0.69926      .   S
    C102   O271      0.74395      .   S
    C107   O271      0.74395      .   S
    C102   O272      0.67550      .   S
    C121   O272      0.67550      .   S
    C107   O273      0.70277      .   S
    C103   O273      0.70277      .   S
    C2     O274      1.02613      .   S
    C119   O274      1.02613  1_455   S
    C2     O275      1.05757      .   S
    C136   O275      1.05757  1_565   S
    C2     O276      1.02766      .   S
    C133   O276      1.02766      .   S
    C119   O277      0.67424      .   S
    C93    O277      0.67424      .   S
    C89    O278      0.74951      .   S
    C99    O278      0.74951      .   S
    C89    O279      0.70132      .   S
    C104   O279      0.70132      .   S
    C79    O280      0.73887      .   S
    C78    O280      0.73887      .   S
    C79    O281      0.70102      .   S
    C80    O281      0.70102      .   S
    C78    O282      0.70277      .   S
    C84    O282      0.70277      .   S
    C3     O283      1.03241      .   S
    C118   O283      1.03241      .   S
    C3     O284      1.01070      .   S
    C137   O284      1.01070      .   S
    C3     O285      1.06877      .   S
    C132   O285      1.06877      .   S
    C118   O286      0.67483      .   S
    C108   O286      0.67483      .   S
    C99    O287      0.63641      .   S
    C136   O287      0.63641      .   S
    C53    O288      0.69873      .   S
    C52    O288      0.69873      .   S
    C53    O289      0.54349      .   S
    C7     O289      0.54349      .   S
    C121   O290      0.66880      .   S
    C104   O290      0.66880      .   S
    C104   O291      0.54581      .   S
    C37    O291      0.54581      .   S
    C100   O292      0.69433      .   S
    C103   O292      0.69433      .   S
    C100   O293      0.54454      .   S
    C34    O293      0.54454      .   S
    C103   O294      0.54483      .   S
    C36    O294      0.54483      .   S
    C52    O295      0.74899      .   S
    C47    O295      0.74899      .   S
    C93    O296      0.69329      .   S
    C80    O296      0.69329      .   S
    C93    O297      0.54401      .   S
    C30    O297      0.54401      .   S
    C80    O298      0.54343      .   S
    C24    O298      0.54343      .   S
    C108   O299      0.69387      .   S
    C84    O299      0.69387      .   S
    C108   O300      0.54478      .   S
    C40    O300      0.54478      .   S
    C84    O301      0.54458      .   S
    C26    O301      0.54458      .   S
    C0     O302      1.41871      .   S
    C1     O302      1.41871      .   S
    C2     O303      1.41876      .   S
    C3     O303      1.41876      .   S
