# CIF file generated by openbabel 2.4.90, see http://openbabel.sf.net
data_I
_chemical_name_common ''
_cell_length_a 23.263
_cell_length_b 15.816
_cell_length_c 15.993
_cell_angle_alpha 90.014
_cell_angle_beta 89.916
_cell_angle_gamma 90.006
_space_group_name_H-M_alt 'P 1'
_space_group_name_Hall 'P 1'
loop_
    _symmetry_equiv_pos_as_xyz
    x,y,z
loop_
    _atom_site_label
    _atom_site_type_symbol
    _atom_site_fract_x
    _atom_site_fract_y
    _atom_site_fract_z
    _atom_site_occupancy
    Lv0     Lv   0.32091   0.49954   0.67478   1.000
    Lv1     Lv   0.57141   0.49916   0.32691   1.000
    Lv2     Lv   0.81678   0.99570   0.83140   1.000
    Lv3     Lv   0.06663   0.99453   0.16812   1.000
    Lv4     Lv   0.56749   0.00850   0.16831   1.000
    Lv5     Lv   0.82095   0.50025   0.67287   1.000
    Lv6     Lv   0.31706   0.00300   0.83205   1.000
    Lv7     Lv   0.07135   0.50079   0.32681   1.000
