# CIF file generated by openbabel 2.4.90, see http://openbabel.sf.net
data_I
_chemical_name_common ''
_cell_length_a 23.263
_cell_length_b 15.816
_cell_length_c 15.993
_cell_angle_alpha 90.014
_cell_angle_beta 89.916
_cell_angle_gamma 90.006
_space_group_name_H-M_alt 'P 1'
_space_group_name_Hall 'P 1'
loop_
    _symmetry_equiv_pos_as_xyz
    x,y,z
loop_
    _atom_site_label
    _atom_site_type_symbol
    _atom_site_fract_x
    _atom_site_fract_y
    _atom_site_fract_z
    _atom_site_occupancy
    H0      H    0.14742   0.74935   0.55680   1.000
    H1      H    0.64642   0.75156   0.56036   1.000
    H2      H    0.29359   0.70881   0.77891   1.000
    H3      H    0.79536   0.70891   0.77810   1.000
    H4      H    0.22951   0.83482   0.78128   1.000
    H5      H    0.73239   0.83604   0.78222   1.000
    H6      H    0.43047   0.62688   0.79474   1.000
    H7      H    0.93233   0.62604   0.79055   1.000
    H8      H    0.49139   0.75686   0.79109   1.000
    H9      H    0.99262   0.75660   0.78678   1.000
    H10     H    0.20877   0.62078   0.55593   1.000
    H11     H    0.70722   0.62237   0.55728   1.000
    H12     H    0.41400   0.82900   0.55833   1.000
    H13     H    0.91055   0.83234   0.55846   1.000
    H14     H    0.34921   0.70412   0.56544   1.000
    H15     H    0.84666   0.70652   0.56576   1.000
    H16     H    0.14772   0.24653   0.56096   1.000
    H17     H    0.64846   0.24790   0.55620   1.000
    H18     H    0.29599   0.29031   0.77940   1.000
    H19     H    0.79502   0.29136   0.77726   1.000
    H20     H    0.23346   0.16275   0.78326   1.000
    H21     H    0.73156   0.16468   0.78067   1.000
    H22     H    0.43333   0.37413   0.79141   1.000
    H23     H    0.93143   0.37393   0.79173   1.000
    H24     H    0.49379   0.24380   0.78682   1.000
    H25     H    0.99232   0.24389   0.78797   1.000
    H26     H    0.20806   0.37613   0.55824   1.000
    H27     H    0.70923   0.37714   0.55427   1.000
    H28     H    0.41130   0.16862   0.55860   1.000
    H29     H    0.91457   0.17155   0.55546   1.000
    H30     H    0.34730   0.29422   0.56667   1.000
    H31     H    0.84973   0.29637   0.56284   1.000
    H32     H    0.39765   0.24937   0.44450   1.000
    H33     H    0.89713   0.24766   0.43795   1.000
    H34     H    0.04660   0.29240   0.22071   1.000
    H35     H    0.54458   0.28986   0.22285   1.000
    H36     H    0.48116   0.16329   0.22076   1.000
    H37     H    0.98354   0.16552   0.21529   1.000
    H38     H    0.18314   0.37513   0.20923   1.000
    H39     H    0.68185   0.37296   0.20748   1.000
    H40     H    0.24422   0.24561   0.21393   1.000
    H41     H    0.74275   0.24306   0.21066   1.000
    H42     H    0.45881   0.37814   0.44538   1.000
    H43     H    0.95786   0.37687   0.44221   1.000
    H44     H    0.16285   0.17093   0.44345   1.000
    H45     H    0.66296   0.16793   0.44110   1.000
    H46     H    0.09838   0.29617   0.43562   1.000
    H47     H    0.59842   0.29299   0.43457   1.000
    H48     H    0.39798   0.75258   0.44041   1.000
    H49     H    0.89745   0.75056   0.44398   1.000
    H50     H    0.04519   0.71064   0.22333   1.000
    H51     H    0.54640   0.70777   0.22167   1.000
    H52     H    0.48337   0.83461   0.21688   1.000
    H53     H    0.98178   0.83727   0.22118   1.000
    H54     H    0.18311   0.62648   0.20974   1.000
    H55     H    0.68383   0.62405   0.20980   1.000
    H56     H    0.24386   0.75651   0.21373   1.000
    H57     H    0.74486   0.75364   0.21438   1.000
    H58     H    0.45868   0.62337   0.44000   1.000
    H59     H    0.95848   0.62167   0.44479   1.000
    H60     H    0.16196   0.83216   0.44260   1.000
    H61     H    0.66271   0.82930   0.44300   1.000
    H62     H    0.09757   0.70708   0.43499   1.000
    H63     H    0.59827   0.70413   0.43523   1.000
    C64     C    0.20705   0.19995   0.32860   1.000
    C65     C    0.70673   0.19752   0.32608   1.000
    C66     C    0.45647   0.80100   0.67460   1.000
    C67     C    0.95523   0.80256   0.67261   1.000
    C68     C    0.18509   0.80069   0.66822   1.000
    C69     C    0.68578   0.80202   0.67090   1.000
    C70     C    0.25559   0.65561   0.66748   1.000
    C71     C    0.75552   0.65629   0.66777   1.000
    C72     C    0.38573   0.65624   0.68013   1.000
    C73     C    0.88547   0.65704   0.67810   1.000
    C74     C    0.21212   0.74442   0.26242   1.000
    C75     C    0.71279   0.74195   0.26275   1.000
    C76     C    0.46441   0.66959   0.39404   1.000
    C77     C    0.96390   0.66887   0.39567   1.000
    C78     C    0.16560   0.78783   0.39076   1.000
    C79     C    0.17950   0.73986   0.60523   1.000
    C80     C    0.67906   0.74149   0.60786   1.000
    C81     C    0.26149   0.71752   0.73010   1.000
    C82     C    0.76253   0.71795   0.73039   1.000
    C83     C    0.22610   0.78832   0.73126   1.000
    C84     C    0.72758   0.78919   0.73274   1.000
    C85     C    0.42633   0.67178   0.74331   1.000
    C86     C    0.92709   0.67177   0.74007   1.000
    C87     C    0.46049   0.74413   0.74152   1.000
    C88     C    0.96084   0.74447   0.73826   1.000
    C89     C    0.21378   0.66776   0.60534   1.000
    C90     C    0.71299   0.66904   0.60680   1.000
    C91     C    0.41650   0.78544   0.61090   1.000
    C92     C    0.91424   0.78787   0.61010   1.000
    C93     C    0.38081   0.71500   0.61457   1.000
    C94     C    0.87907   0.71690   0.61380   1.000
    C95     C    0.45618   0.19808   0.67260   1.000
    C96     C    0.95712   0.19963   0.67168   1.000
    C97     C    0.18689   0.19638   0.67177   1.000
    C98     C    0.68665   0.19772   0.66770   1.000
    C99     C    0.25621   0.34271   0.66901   1.000
    C100    C    0.75645   0.34347   0.66578   1.000
    C101    C    0.38619   0.34338   0.67918   1.000
    C102    C    0.88646   0.34428   0.67730   1.000
    C103    C    0.18021   0.25680   0.60864   1.000
    C104    C    0.68065   0.25803   0.60435   1.000
    C105    C    0.26329   0.28105   0.73160   1.000
    C106    C    0.76284   0.28199   0.72867   1.000
    C107    C    0.22856   0.20953   0.73375   1.000
    C108    C    0.72780   0.21083   0.73041   1.000
    C109    C    0.42804   0.32859   0.74075   1.000
    C110    C    0.92722   0.32895   0.74036   1.000
    C111    C    0.46191   0.25601   0.73847   1.000
    C112    C    0.96136   0.25662   0.73849   1.000
    C113    C    0.21390   0.32954   0.60779   1.000
    C114    C    0.71459   0.33050   0.60389   1.000
    C115    C    0.41507   0.21295   0.61041   1.000
    C116    C    0.91715   0.21514   0.60801   1.000
    C117    C    0.37981   0.28379   0.61460   1.000
    C118    C    0.88145   0.28554   0.61181   1.000
    C119    C    0.43584   0.19799   0.33331   1.000
    C120    C    0.93671   0.19819   0.32699   1.000
    C121    C    0.00651   0.34405   0.33150   1.000
    C122    C    0.50600   0.34322   0.33397   1.000
    C123    C    0.13660   0.34471   0.32222   1.000
    C124    C    0.63612   0.34236   0.32114   1.000
    C125    C    0.42987   0.25888   0.39619   1.000
    C126    C    0.92990   0.25816   0.39058   1.000
    C127    C    0.01372   0.28289   0.26841   1.000
    C128    C    0.51225   0.28123   0.27149   1.000
    C129    C    0.47705   0.21021   0.27032   1.000
    C130    C    0.97874   0.21165   0.26544   1.000
    C131    C    0.17821   0.32982   0.26017   1.000
    C132    C    0.67728   0.32755   0.25841   1.000
    C133    C    0.21232   0.25751   0.26248   1.000
    C134    C    0.71144   0.25523   0.25993   1.000
    C135    C    0.46401   0.33112   0.39600   1.000
    C136    C    0.96382   0.33063   0.39232   1.000
    C137    C    0.16619   0.21501   0.39139   1.000
    C138    C    0.66608   0.21219   0.38923   1.000
    C139    C    0.13068   0.28556   0.38728   1.000
    C140    C    0.63050   0.28274   0.38580   1.000
    C141    C    0.20676   0.80238   0.32828   1.000
    C142    C    0.70728   0.79984   0.32863   1.000
    C143    C    0.43697   0.80200   0.32895   1.000
    C144    C    0.93604   0.80225   0.33325   1.000
    C145    C    0.00612   0.65689   0.33388   1.000
    C146    C    0.50677   0.65608   0.33270   1.000
    C147    C    0.13629   0.65742   0.32239   1.000
    C148    C    0.63685   0.65505   0.32231   1.000
    C149    C    0.43049   0.74208   0.39265   1.000
    C150    C    0.92982   0.74116   0.39585   1.000
    C151    C    0.01266   0.71911   0.27171   1.000
    C152    C    0.51373   0.71727   0.26967   1.000
    C153    C    0.47877   0.78850   0.26705   1.000
    C154    C    0.97748   0.79018   0.27053   1.000
    C155    C    0.17805   0.67204   0.26045   1.000
    C156    C    0.67870   0.66961   0.26052   1.000
    C157    C    0.66624   0.78505   0.39117   1.000
    C158    C    0.13009   0.71721   0.38686   1.000
    C159    C    0.63074   0.71450   0.38709   1.000
loop_
    _geom_bond_atom_site_label_1
    _geom_bond_atom_site_label_2
    _geom_bond_distance
    _geom_bond_site_symmetry_2
    _ccdc_geom_bond_type
    H39    C132      1.09108      .   S
    H38    C131      1.09104      .   S
    H54    C155      1.09102      .   S
    H55    C156      1.09134      .   S
    H41    C134      1.08943      .   S
    H56    C74       1.08940      .   S
    H40    C133      1.08965      .   S
    H57    C75       1.08958      .   S
    H37    C130      1.08974      .   S
    H52    C153      1.08960      .   S
    H34    C127      1.08987      .   S
    H36    C129      1.08974      .   S
    H53    C154      1.08978      .   S
    H51    C152      1.08983      .   S
    H35    C128      1.08984      .   S
    H50    C151      1.08982      .   S
    C132   C134      1.39294      .   S
    C132   C124      1.40556      .   S
    C134   C65       1.40164      .   S
    C131   C133      1.39251      .   S
    C131   C123      1.40510      .   S
    C155   C74       1.39267      .   S
    C155   C147      1.40560      .   S
    C156   C75       1.39246      .   S
    C156   C148      1.40525      .   S
    C74    C141      1.40156      .   S
    C133   C64       1.40074      .   S
    C75    C142      1.40143      .   S
    C130   C127      1.39056  1_655   S
    C130   C120      1.40267      .   S
    C153   C152      1.39022      .   S
    C153   C143      1.40285      .   S
    C127   C121      1.40745      .   S
    C152   C146      1.40667      .   S
    C129   C128      1.39004      .   S
    C129   C119      1.40314      .   S
    C154   C151      1.39047  1_655   S
    C154   C144      1.40325      .   S
    C128   C122      1.40711      .   S
    C151   C145      1.40719      .   S
    C124   C140      1.40560      .   S
    C123   C139      1.40603      .   S
    C148   C159      1.40595      .   S
    C147   C158      1.40610      .   S
    C65    C138      1.40180      .   S
    C120   C126      1.39939      .   S
    C141   C78       1.40189      .   S
    C64    C137      1.40206      .   S
    C142   C157      1.40137      .   S
    C143   C149      1.39958      .   S
    C121   C136      1.40531  1_455   S
    C146   C76       1.40572      .   S
    C144   C150      1.39890      .   S
    C119   C125      1.39894      .   S
    C145   C77       1.40502  1_455   S
    C122   C135      1.40432      .   S
    C140   C138      1.39052      .   S
    C140   H47       1.09080      .   S
    C158   C78       1.39055      .   S
    C158   H62       1.09026      .   S
    C159   C157      1.38976      .   S
    C159   H63       1.09010      .   S
    C139   C137      1.39002      .   S
    C139   H46       1.09027      .   S
    C138   H45       1.08798      .   S
    C126   C136      1.39176      .   S
    C126   H33       1.08677      .   S
    C78    H60       1.08887      .   S
    C157   H61       1.08779      .   S
    C137   H44       1.08875      .   S
    C136   H43       1.09091      .   S
    C149   C76       1.39212      .   S
    C149   H48       1.08686      .   S
    C76    H58       1.04514      .   S
    C77    C150      1.39144      .   S
    C77    H59       1.09096      .   S
    C150   H49       1.08620      .   S
    C135   C125      1.39141      .   S
    C135   H42       1.09133      .   S
    C125   H32       1.08622      .   S
    H27    C114      1.09093      .   S
    H29    C116      1.08863      .   S
    H10    C89       1.09090      .   S
    H17    C104      1.08676      .   S
    H0     C79       1.08669      .   S
    H11    C90       1.09096      .   S
    H26    C113      1.09093      .   S
    H12    C91       1.08867      .   S
    H13    C92       1.08849      .   S
    H28    C115      1.08889      .   S
    H1     C80       1.08664      .   S
    H16    C103      1.08672      .   S
    H31    C118      1.09032      .   S
    H14    C93       1.09035      .   S
    H15    C94       1.08954      .   S
    H30    C117      1.09018      .   S
    C114   C104      1.39171      .   S
    C114   C100      1.40460      .   S
    C104   C98       1.39884      .   S
    C79    C89       1.39166      .   S
    C79    C68       1.39897      .   S
    C89    C70       1.40484      .   S
    C90    C80       1.39155      .   S
    C90    C71       1.40474      .   S
    C113   C103      1.39193      .   S
    C113   C99       1.40487      .   S
    C80    C69       1.39905      .   S
    C116   C118      1.39031      .   S
    C116   C96       1.40178      .   S
    C103   C97       1.39919      .   S
    C92    C94       1.39022      .   S
    C92    C67       1.40190      .   S
    C115   C117      1.39021      .   S
    C115   C95       1.40075      .   S
    C91    C93       1.39057      .   S
    C91    C66       1.40204      .   S
    C118   C102      1.40484      .   S
    C94    C73       1.40606      .   S
    C93    C72       1.40612      .   S
    C117   C101      1.40610      .   S
    C100   C106      1.40714      .   S
    C70    C81       1.40717      .   S
    C98    C108      1.40285      .   S
    C71    C82       1.40733      .   S
    C68    C83       1.40284      .   S
    C99    C105      1.40758      .   S
    C69    C84       1.40284      .   S
    C96    C112      1.40133      .   S
    C97    C107      1.40290      .   S
    C95    C111      1.40251      .   S
    C67    C88       1.40152      .   S
    C66    C87       1.40144      .   S
    C102   C110      1.40637      .   S
    C73    C86       1.40601      .   S
    C101   C109      1.40542      .   S
    C72    C85       1.40562      .   S
    C106   C108      1.38980      .   S
    C106   H19       1.08990      .   S
    C81    C83       1.39004      .   S
    C81    H2        1.08982      .   S
    C82    C84       1.38997      .   S
    C82    H3        1.08985      .   S
    C108   H21       1.08951      .   S
    C83    H4        1.08955      .   S
    C105   C107      1.39030      .   S
    C105   H18       1.08918      .   S
    C84    H5        1.08975      .   S
    C107   H20       1.08991      .   S
    C88    C86       1.39246      .   S
    C88    H9        1.08958      .   S
    C111   C109      1.39269      .   S
    C111   H24       1.08950      .   S
    C112   C110      1.39302      .   S
    C112   H25       1.08967      .   S
    C86    H7        1.09105      .   S
    C110   H23       1.09114      .   S
    C109   H22       1.09112      .   S
    C87    C85       1.39339      .   S
    C87    H8        1.08967      .   S
    C85    H6        1.09117      .   S
