# CIF file generated by openbabel 2.4.90, see http://openbabel.sf.net
data_I
_chemical_name_common ''
_cell_length_a 23.263
_cell_length_b 15.816
_cell_length_c 15.993
_cell_angle_alpha 90.014
_cell_angle_beta 89.916
_cell_angle_gamma 90.006
_space_group_name_H-M_alt 'P 1'
_space_group_name_Hall 'P 1'
loop_
    _symmetry_equiv_pos_as_xyz
    x,y,z
loop_
    _atom_site_label
    _atom_site_type_symbol
    _atom_site_fract_x
    _atom_site_fract_y
    _atom_site_fract_z
    _atom_site_occupancy
    H0      H    0.16962   0.00358   0.29548   1.000
    H1      H    0.66996   0.99631   0.29616   1.000
    H2      H    0.48207   0.00472   0.43726   1.000
    H3      H    0.98209   0.99651   0.43775   1.000
    H4      H    0.16062   0.00271   0.45183   1.000
    H5      H    0.66049   0.99628   0.45238   1.000
    H6      H    0.48473   0.00596   0.28067   1.000
    H7      H    0.98427   0.99642   0.28107   1.000
    H8      H    0.46419   0.03491   0.03435   1.000
    H9      H    0.96468   0.95506   0.03416   1.000
    H10     H    0.47832   0.02368   0.87770   1.000
    H11     H    0.97879   0.96303   0.87714   1.000
    H12     H    0.15083   0.02350   0.90434   1.000
    H13     H    0.65438   0.99766   0.90458   1.000
    H14     H    0.14397   0.01722   0.06220   1.000
    H15     H    0.64743   0.00664   0.06218   1.000
    H16     H    0.42637   0.50003   0.69045   1.000
    H17     H    0.92645   0.50090   0.68825   1.000
    H18     H    0.21547   0.49909   0.65927   1.000
    H19     H    0.71548   0.49955   0.65768   1.000
    H20     H    0.42025   0.99652   0.70430   1.000
    H21     H    0.91971   0.00513   0.70370   1.000
    H22     H    0.23234   0.99847   0.56381   1.000
    H23     H    0.73212   0.99885   0.56246   1.000
    H24     H    0.41091   0.99826   0.54819   1.000
    H25     H    0.91065   0.00486   0.54744   1.000
    H26     H    0.23481   0.99861   0.72028   1.000
    H27     H    0.73433   0.99719   0.71895   1.000
    C28     C    0.76227   0.49990   0.66208   1.000
    H29     H    0.23933   0.10651   0.96641   1.000
    H30     H    0.73713   0.89434   0.96594   1.000
    H31     H    0.25444   0.09739   0.12335   1.000
    H32     H    0.75269   0.90336   0.12275   1.000
    H33     H    0.37675   0.90981   0.09630   1.000
    H34     H    0.87861   0.08563   0.09474   1.000
    H35     H    0.36831   0.91259   0.93838   1.000
    H36     H    0.86991   0.08249   0.93680   1.000
    H37     H    0.17690   0.50112   0.31204   1.000
    H38     H    0.67688   0.49855   0.31100   1.000
    H39     H    0.46596   0.49975   0.34270   1.000
    H40     H    0.96581   0.50045   0.34148   1.000
    C41     C    0.35096   0.57758   0.68017   1.000
    C42     C    0.85091   0.57828   0.67837   1.000
    C43     C    0.29058   0.57729   0.66910   1.000
    C44     C    0.79048   0.57794   0.66799   1.000
    C45     C    0.35126   0.42180   0.67998   1.000
    C46     C    0.85140   0.42259   0.67781   1.000
    C47     C    0.29082   0.42147   0.66956   1.000
    C48     C    0.79101   0.42221   0.66700   1.000
    C49     C    0.05329   0.98671   0.05904   1.000
    C50     C    0.55475   0.01923   0.05920   1.000
    C51     C    0.12774   0.00169   0.32577   1.000
    C52     C    0.62801   0.99866   0.32616   1.000
    C53     C    0.02270   0.99770   0.40389   1.000
    C54     C    0.52278   0.00341   0.40368   1.000
    C55     C    0.12264   0.00119   0.41228   1.000
    C56     C    0.62264   0.99864   0.41263   1.000
    C57     C    0.07776   0.99913   0.27741   1.000
    C58     C    0.57821   0.00253   0.27750   1.000
    C59     C    0.02392   0.99726   0.31718   1.000
    C60     C    0.52428   0.00458   0.31696   1.000
    C61     C    0.00628   0.97078   0.00687   1.000
    C62     C    0.50668   0.02574   0.00712   1.000
    C63     C    0.01384   0.97535   0.92066   1.000
    C64     C    0.51431   0.01948   0.92106   1.000
    C65     C    0.11060   0.00895   0.93630   1.000
    C66     C    0.61322   0.00486   0.93640   1.000
    C67     C    0.10675   0.00574   0.02260   1.000
    C68     C    0.60936   0.00979   0.02285   1.000
    C69     C    0.37957   0.49981   0.68590   1.000
    C70     C    0.87965   0.50061   0.68382   1.000
    C71     C    0.26225   0.49924   0.66384   1.000
    C72     C    0.10166   0.42308   0.32157   1.000
    C73     C    0.60141   0.42106   0.32139   1.000
    C74     C    0.04119   0.42274   0.33159   1.000
    C75     C    0.54102   0.42149   0.33247   1.000
    C76     C    0.10150   0.57882   0.32198   1.000
    C77     C    0.60180   0.57680   0.32167   1.000
    C78     C    0.04104   0.57853   0.33230   1.000
    C79     C    0.54137   0.57730   0.33233   1.000
    C80     C    0.30350   0.01093   0.94130   1.000
    C81     C    0.80315   0.98707   0.94037   1.000
    C82     C    0.37828   0.99748   0.67449   1.000
    C83     C    0.87783   0.00321   0.67366   1.000
    C84     C    0.27303   0.99865   0.59728   1.000
    C85     C    0.77273   0.99965   0.59610   1.000
    C86     C    0.37298   0.99826   0.58000   1.000
    C87     C    0.87268   0.00330   0.58715   1.000
    C88     C    0.32839   0.99859   0.72323   1.000
    C89     C    0.82788   0.00003   0.72221   1.000
    C90     C    0.27445   0.99901   0.68400   1.000
    C91     C    0.77401   0.99842   0.68280   1.000
    C92     C    0.27023   0.06261   0.99347   1.000
    C93     C    0.76899   0.93693   0.99270   1.000
    C94     C    0.27834   0.05805   0.07938   1.000
    C95     C    0.77731   0.94152   0.07863   1.000
    C96     C    0.34749   0.95275   0.06419   1.000
    C97     C    0.84848   0.04377   0.06280   1.000
    C98     C    0.34273   0.95441   0.97769   1.000
    C99     C    0.84358   0.04196   0.97640   1.000
    C100    C    0.13008   0.50102   0.31618   1.000
    C101    C    0.63008   0.49879   0.31566   1.000
    C102    C    0.01264   0.50053   0.33730   1.000
    C103    C    0.51274   0.49956   0.33803   1.000
    N104    N    0.07109   0.99956   0.45085   1.000
    N105    N    0.57099   0.00056   0.45095   1.000
    N106    N    0.08668   0.00125   0.18996   1.000
    N107    N    0.58727   0.00079   0.19004   1.000
    N108    N    0.06505   0.99437   0.88592   1.000
    N109    N    0.56660   0.00875   0.88627   1.000
    N110    N    0.04270   0.98187   0.14600   1.000
    N111    N    0.54411   0.02384   0.14674   1.000
    N112    N    0.32134   0.99859   0.54990   1.000
    N113    N    0.82111   0.00170   0.54892   1.000
    N114    N    0.33749   0.99715   0.81076   1.000
    N115    N    0.83698   0.00063   0.80973   1.000
    N116    N    0.31627   0.00406   0.11429   1.000
    N117    N    0.81629   0.99409   0.11328   1.000
    N118    N    0.29361   0.01725   0.85417   1.000
    N119    N    0.79295   0.98127   0.85317   1.000
loop_
    _geom_bond_atom_site_label_1
    _geom_bond_atom_site_label_2
    _geom_bond_distance
    _geom_bond_site_symmetry_2
    _ccdc_geom_bond_type
    C61    H9        1.08969  1_455   S
    C61    C49       1.39940      .   S
    C61    C63       1.39158  1_554   S
    C62    H8        1.08911      .   S
    C62    C50       1.39919      .   S
    C62    C64       1.39101  1_554   S
    C67    C49       1.40515  1_545   S
    C67    H14       1.08867      .   S
    C67    C65       1.38392  1_554   S
    C68    C50       1.40429      .   S
    C68    H15       1.08815      .   S
    C68    C66       1.38756  1_554   S
    C49    N110      1.41415      .   S
    C50    N111      1.42324      .   S
    C97    H34       1.09150      .   S
    C97    N117      1.35211  1_545   S
    C97    C99       1.38695  1_554   S
    C96    H33       1.09072      .   S
    C96    N116      1.35130  1_565   S
    C96    C98       1.38822  1_554   S
    C95    N117      1.34975      .   S
    C95    H32       1.09052      .   S
    C95    C93       1.38999  1_554   S
    C94    N116      1.34956      .   S
    C94    H31       1.09054      .   S
    C94    C92       1.38900  1_554   S
    N110   N106      1.27936  1_565   S
    N111   N107      1.27385      .   S
    N106   C57       1.41399  1_545   S
    N107   C58       1.41449      .   S
    C57    C59       1.40410      .   S
    C57    C51       1.39805  1_565   S
    C58    C60       1.40393      .   S
    C58    C52       1.39795  1_545   S
    H6     C60       1.08868      .   S
    H7     C59       1.08917  1_655   S
    H0     C51       1.08765      .   S
    H1     C52       1.08756      .   S
    H38    C101      1.09113      .   S
    H37    C100      1.09109      .   S
    C101   C73       1.40149      .   S
    C101   C77       1.40149      .   S
    C100   C72       1.40133      .   S
    C100   C76       1.40166      .   S
    C60    C54       1.38743      .   S
    C59    C53       1.38702      .   S
    C73    C75       1.41588      .   S
    C72    C74       1.41575      .   S
    C77    C79       1.41595      .   S
    C76    C78       1.41578      .   S
    C51    C55       1.38849      .   S
    C52    C56       1.38835      .   S
    C74    C102      1.40116      .   S
    C78    C102      1.40174      .   S
    C79    C103      1.40115      .   S
    C75    C103      1.40174      .   S
    C102   H40       1.09124  1_455   S
    C103   H39       1.09074      .   S
    C54    H2        1.08814      .   S
    C54    N105      1.35433      .   S
    C53    H3        1.08844  1_455   S
    C53    N104      1.35441      .   S
    C55    N104      1.34806  1_545   S
    C55    H4        1.08756      .   S
    C56    N105      1.34833  1_565   S
    C56    H5        1.08742      .   S
    H25    C87       1.08735      .   S
    H24    C86       1.01789      .   S
    N113   C87       1.34754      .   S
    N113   C85       1.35445  1_545   S
    N112   C86       1.29481      .   S
    N112   C84       1.35445      .   S
    H23    C85       1.08806      .   S
    H22    C84       1.08813      .   S
    C86    C82       1.51643      .   S
    C87    C83       1.38889      .   S
    C85    C91       1.38710      .   S
    C84    C90       1.38736      .   S
    H19    C28       1.09075      .   S
    H18    C71       1.09078      .   S
    C28    C48       1.40123      .   S
    C28    C44       1.40115      .   S
    C71    C43       1.40172      .   S
    C71    C47       1.40127      .   S
    C48    C46       1.41578      .   S
    C44    C42       1.41585      .   S
    C43    C41       1.41593      .   S
    C47    C45       1.41615      .   S
    C83    H21       1.08751      .   S
    C83    C89       1.39736      .   S
    C82    H20       1.08722      .   S
    C82    C88       1.39721      .   S
    C46    C70       1.40127      .   S
    C42    C70       1.40147      .   S
    C45    C69       1.40171      .   S
    C41    C69       1.40172      .   S
    C91    H27       1.08872      .   S
    C91    C89       1.40383  1_565   S
    C70    H17       1.09108      .   S
    C90    H26       1.08874      .   S
    C90    C88       1.40374      .   S
    C69    H16       1.09111      .   S
    C89    N115      1.41597      .   S
    C88    N114      1.41628      .   S
    N115   N119      1.27418  1_545   S
    N114   N118      1.27397  1_565   S
    N119   C81       1.41792      .   S
    N118   C80       1.41623      .   S
    H11    C63       1.09025  1_655   S
    H10    C64       1.08997      .   S
    N108   C63       1.34767      .   S
    N108   C65       1.35200  1_565   S
    N109   C64       1.34778      .   S
    N109   C66       1.35099      .   S
    H12    C65       1.09021      .   S
    H13    C66       1.08970  1_565   S
    H36    C99       1.08909      .   S
    H35    C98       1.08883      .   S
    C81    C99       1.40401  1_565   S
    C81    C93       1.39969      .   S
    C80    C98       1.40454  1_545   S
    C80    C92       1.40042      .   S
    H30    C93       1.08957      .   S
    H29    C92       1.08955      .   S
