# CIF file generated by openbabel 2.4.90, see http://openbabel.sf.net
data_I
_chemical_name_common ''
_cell_length_a 23.263
_cell_length_b 15.816
_cell_length_c 15.993
_cell_angle_alpha 90.014
_cell_angle_beta 89.916
_cell_angle_gamma 90.006
_space_group_name_H-M_alt 'P 1'
_space_group_name_Hall 'P 1'
loop_
    _symmetry_equiv_pos_as_xyz
    x,y,z
loop_
    _atom_site_label
    _atom_site_type_symbol
    _atom_site_fract_x
    _atom_site_fract_y
    _atom_site_fract_z
    _atom_site_occupancy
    Mc0     Mc   0.22143   0.26917   0.67044   1.000
    Mc1     Mc   0.42129   0.27036   0.67595   1.000
    Mc2     Mc   0.42114   0.72905   0.67746   1.000
    Mc3     Mc   0.22008   0.72835   0.66805   1.000
    Mc4     Mc   0.67141   0.26945   0.32344   1.000
    Mc5     Mc   0.67223   0.72771   0.32549   1.000
    Mc6     Mc   0.47176   0.72939   0.33040   1.000
    Mc7     Mc   0.47072   0.27033   0.33348   1.000
    Mc8     Mc   0.72048   0.72949   0.66944   1.000
    Mc9     Mc   0.92188   0.27159   0.67456   1.000
    Mc10    Mc   0.92041   0.73021   0.67545   1.000
    Mc11    Mc   0.72133   0.27036   0.66692   1.000
    Mc12    Mc   0.17196   0.27204   0.32544   1.000
    Mc13    Mc   0.17154   0.73035   0.32522   1.000
    Mc14    Mc   0.97145   0.27080   0.32914   1.000
    Mc15    Mc   0.97089   0.72986   0.33342   1.000
