# CIF file generated by openbabel 2.4.90, see http://openbabel.sf.net
data_I
_chemical_name_common ''
_cell_length_a 23.263
_cell_length_b 15.816
_cell_length_c 15.993
_cell_angle_alpha 90.014
_cell_angle_beta 89.916
_cell_angle_gamma 90.006
_space_group_name_H-M_alt 'P 1'
_space_group_name_Hall 'P 1'
loop_
    _symmetry_equiv_pos_as_xyz
    x,y,z
loop_
    _atom_site_label
    _atom_site_type_symbol
    _atom_site_fract_x
    _atom_site_fract_y
    _atom_site_fract_z
    _atom_site_occupancy
    H0      H    0.14742   0.74935   0.55680   1.000
    H1      H    0.64642   0.75156   0.56036   1.000
    H2      H    0.29359   0.70881   0.77891   1.000
    H3      H    0.79536   0.70891   0.77810   1.000
    H4      H    0.22951   0.83482   0.78128   1.000
    H5      H    0.73239   0.83604   0.78222   1.000
    H6      H    0.43047   0.62688   0.79474   1.000
    H7      H    0.93233   0.62604   0.79055   1.000
    H8      H    0.49139   0.75686   0.79109   1.000
    H9      H    0.99262   0.75660   0.78678   1.000
    H10     H    0.20877   0.62078   0.55593   1.000
    H11     H    0.70722   0.62237   0.55728   1.000
    H12     H    0.41400   0.82900   0.55833   1.000
    H13     H    0.91055   0.83234   0.55846   1.000
    H14     H    0.34921   0.70412   0.56544   1.000
    H15     H    0.84666   0.70652   0.56576   1.000
    H16     H    0.14772   0.24653   0.56096   1.000
    H17     H    0.64846   0.24790   0.55620   1.000
    H18     H    0.29599   0.29031   0.77940   1.000
    H19     H    0.79502   0.29136   0.77726   1.000
    H20     H    0.23346   0.16275   0.78326   1.000
    H21     H    0.73156   0.16468   0.78067   1.000
    H22     H    0.43333   0.37413   0.79141   1.000
    H23     H    0.93143   0.37393   0.79173   1.000
    H24     H    0.49379   0.24380   0.78682   1.000
    H25     H    0.99232   0.24389   0.78797   1.000
    H26     H    0.20806   0.37613   0.55824   1.000
    H27     H    0.70923   0.37714   0.55427   1.000
    H28     H    0.41130   0.16862   0.55860   1.000
    H29     H    0.91457   0.17155   0.55546   1.000
    H30     H    0.34730   0.29422   0.56667   1.000
    H31     H    0.84973   0.29637   0.56284   1.000
    H32     H    0.16962   0.00358   0.29548   1.000
    H33     H    0.66996   0.99631   0.29616   1.000
    H34     H    0.48207   0.00472   0.43726   1.000
    H35     H    0.98209   0.99651   0.43775   1.000
    H36     H    0.16062   0.00271   0.45183   1.000
    H37     H    0.66049   0.99628   0.45238   1.000
    H38     H    0.48473   0.00596   0.28067   1.000
    H39     H    0.98427   0.99642   0.28107   1.000
    H40     H    0.46419   0.03491   0.03435   1.000
    H41     H    0.96468   0.95506   0.03416   1.000
    H42     H    0.47832   0.02368   0.87770   1.000
    H43     H    0.97879   0.96303   0.87714   1.000
    H44     H    0.15083   0.02350   0.90434   1.000
    H45     H    0.65438   0.99766   0.90458   1.000
    H46     H    0.14397   0.01722   0.06220   1.000
    H47     H    0.64743   0.00664   0.06218   1.000
    H48     H    0.42637   0.50003   0.69045   1.000
    H49     H    0.92645   0.50090   0.68825   1.000
    H50     H    0.21547   0.49909   0.65927   1.000
    H51     H    0.71548   0.49955   0.65768   1.000
    H52     H    0.39765   0.24937   0.44450   1.000
    H53     H    0.89713   0.24766   0.43795   1.000
    H54     H    0.04660   0.29240   0.22071   1.000
    H55     H    0.54458   0.28986   0.22285   1.000
    H56     H    0.48116   0.16329   0.22076   1.000
    H57     H    0.98354   0.16552   0.21529   1.000
    H58     H    0.18314   0.37513   0.20923   1.000
    H59     H    0.68185   0.37296   0.20748   1.000
    H60     H    0.24422   0.24561   0.21393   1.000
    H61     H    0.74275   0.24306   0.21066   1.000
    H62     H    0.45881   0.37814   0.44538   1.000
    H63     H    0.95786   0.37687   0.44221   1.000
    H64     H    0.16285   0.17093   0.44345   1.000
    H65     H    0.66296   0.16793   0.44110   1.000
    H66     H    0.09838   0.29617   0.43562   1.000
    H67     H    0.59842   0.29299   0.43457   1.000
    H68     H    0.39798   0.75258   0.44041   1.000
    H69     H    0.89745   0.75056   0.44398   1.000
    H70     H    0.04519   0.71064   0.22333   1.000
    H71     H    0.54640   0.70777   0.22167   1.000
    H72     H    0.48337   0.83461   0.21688   1.000
    H73     H    0.98178   0.83727   0.22118   1.000
    H74     H    0.18311   0.62648   0.20974   1.000
    H75     H    0.68383   0.62405   0.20980   1.000
    H76     H    0.24386   0.75651   0.21373   1.000
    H77     H    0.74486   0.75364   0.21438   1.000
    H78     H    0.45868   0.62337   0.44000   1.000
    H79     H    0.95848   0.62167   0.44479   1.000
    H80     H    0.16196   0.83216   0.44260   1.000
    H81     H    0.66271   0.82930   0.44300   1.000
    H82     H    0.09757   0.70708   0.43499   1.000
    H83     H    0.59827   0.70413   0.43523   1.000
    H84     H    0.42025   0.99652   0.70430   1.000
    H85     H    0.91971   0.00513   0.70370   1.000
    H86     H    0.23234   0.99847   0.56381   1.000
    H87     H    0.73212   0.99885   0.56246   1.000
    H88     H    0.41091   0.99826   0.54819   1.000
    H89     H    0.91065   0.00486   0.54744   1.000
    H90     H    0.23481   0.99861   0.72028   1.000
    H91     H    0.73433   0.99719   0.71895   1.000
    C92     C    0.76227   0.49990   0.66208   1.000
    C93     C    0.20705   0.19995   0.32860   1.000
    C94     C    0.70673   0.19752   0.32608   1.000
    H95     H    0.23933   0.10651   0.96641   1.000
    H96     H    0.73713   0.89434   0.96594   1.000
    H97     H    0.25444   0.09739   0.12335   1.000
    H98     H    0.75269   0.90336   0.12275   1.000
    H99     H    0.37675   0.90981   0.09630   1.000
    H100    H    0.87861   0.08563   0.09474   1.000
    H101    H    0.36831   0.91259   0.93838   1.000
    H102    H    0.86991   0.08249   0.93680   1.000
    H103    H    0.17690   0.50112   0.31204   1.000
    H104    H    0.67688   0.49855   0.31100   1.000
    H105    H    0.46596   0.49975   0.34270   1.000
    H106    H    0.96581   0.50045   0.34148   1.000
    C107    C    0.45647   0.80100   0.67460   1.000
    C108    C    0.95523   0.80256   0.67261   1.000
    C109    C    0.18509   0.80069   0.66822   1.000
    C110    C    0.68578   0.80202   0.67090   1.000
    C111    C    0.25559   0.65561   0.66748   1.000
    C112    C    0.75552   0.65629   0.66777   1.000
    C113    C    0.38573   0.65624   0.68013   1.000
    C114    C    0.88547   0.65704   0.67810   1.000
    C115    C    0.35096   0.57758   0.68017   1.000
    C116    C    0.85091   0.57828   0.67837   1.000
    C117    C    0.29058   0.57729   0.66910   1.000
    C118    C    0.79048   0.57794   0.66799   1.000
    C119    C    0.21212   0.74442   0.26242   1.000
    C120    C    0.71279   0.74195   0.26275   1.000
    C121    C    0.46441   0.66959   0.39404   1.000
    C122    C    0.96390   0.66887   0.39567   1.000
    C123    C    0.16560   0.78783   0.39076   1.000
    C124    C    0.17950   0.73986   0.60523   1.000
    C125    C    0.67906   0.74149   0.60786   1.000
    C126    C    0.26149   0.71752   0.73010   1.000
    C127    C    0.76253   0.71795   0.73039   1.000
    C128    C    0.22610   0.78832   0.73126   1.000
    C129    C    0.72758   0.78919   0.73274   1.000
    C130    C    0.42633   0.67178   0.74331   1.000
    C131    C    0.92709   0.67177   0.74007   1.000
    C132    C    0.46049   0.74413   0.74152   1.000
    C133    C    0.96084   0.74447   0.73826   1.000
    C134    C    0.21378   0.66776   0.60534   1.000
    C135    C    0.71299   0.66904   0.60680   1.000
    C136    C    0.41650   0.78544   0.61090   1.000
    C137    C    0.91424   0.78787   0.61010   1.000
    C138    C    0.38081   0.71500   0.61457   1.000
    C139    C    0.87907   0.71690   0.61380   1.000
    C140    C    0.45618   0.19808   0.67260   1.000
    C141    C    0.95712   0.19963   0.67168   1.000
    C142    C    0.18689   0.19638   0.67177   1.000
    C143    C    0.68665   0.19772   0.66770   1.000
    C144    C    0.25621   0.34271   0.66901   1.000
    C145    C    0.75645   0.34347   0.66578   1.000
    C146    C    0.38619   0.34338   0.67918   1.000
    C147    C    0.88646   0.34428   0.67730   1.000
    C148    C    0.35126   0.42180   0.67998   1.000
    C149    C    0.85140   0.42259   0.67781   1.000
    C150    C    0.29082   0.42147   0.66956   1.000
    C151    C    0.79101   0.42221   0.66700   1.000
    C152    C    0.18021   0.25680   0.60864   1.000
    C153    C    0.68065   0.25803   0.60435   1.000
    C154    C    0.26329   0.28105   0.73160   1.000
    C155    C    0.76284   0.28199   0.72867   1.000
    C156    C    0.22856   0.20953   0.73375   1.000
    C157    C    0.72780   0.21083   0.73041   1.000
    C158    C    0.42804   0.32859   0.74075   1.000
    C159    C    0.92722   0.32895   0.74036   1.000
    C160    C    0.46191   0.25601   0.73847   1.000
    C161    C    0.96136   0.25662   0.73849   1.000
    C162    C    0.21390   0.32954   0.60779   1.000
    C163    C    0.71459   0.33050   0.60389   1.000
    C164    C    0.41507   0.21295   0.61041   1.000
    C165    C    0.91715   0.21514   0.60801   1.000
    C166    C    0.37981   0.28379   0.61460   1.000
    C167    C    0.88145   0.28554   0.61181   1.000
    C168    C    0.05329   0.98671   0.05904   1.000
    C169    C    0.55475   0.01923   0.05920   1.000
    C170    C    0.12774   0.00169   0.32577   1.000
    C171    C    0.62801   0.99866   0.32616   1.000
    C172    C    0.02270   0.99770   0.40389   1.000
    C173    C    0.52278   0.00341   0.40368   1.000
    C174    C    0.12264   0.00119   0.41228   1.000
    C175    C    0.62264   0.99864   0.41263   1.000
    C176    C    0.07776   0.99913   0.27741   1.000
    C177    C    0.57821   0.00253   0.27750   1.000
    C178    C    0.02392   0.99726   0.31718   1.000
    C179    C    0.52428   0.00458   0.31696   1.000
    C180    C    0.00628   0.97078   0.00687   1.000
    C181    C    0.50668   0.02574   0.00712   1.000
    C182    C    0.01384   0.97535   0.92066   1.000
    C183    C    0.51431   0.01948   0.92106   1.000
    C184    C    0.11060   0.00895   0.93630   1.000
    C185    C    0.61322   0.00486   0.93640   1.000
    C186    C    0.10675   0.00574   0.02260   1.000
    C187    C    0.60936   0.00979   0.02285   1.000
    C188    C    0.37957   0.49981   0.68590   1.000
    C189    C    0.87965   0.50061   0.68382   1.000
    C190    C    0.26225   0.49924   0.66384   1.000
    C191    C    0.43584   0.19799   0.33331   1.000
    C192    C    0.93671   0.19819   0.32699   1.000
    C193    C    0.00651   0.34405   0.33150   1.000
    C194    C    0.50600   0.34322   0.33397   1.000
    C195    C    0.13660   0.34471   0.32222   1.000
    C196    C    0.63612   0.34236   0.32114   1.000
    C197    C    0.10166   0.42308   0.32157   1.000
    C198    C    0.60141   0.42106   0.32139   1.000
    C199    C    0.04119   0.42274   0.33159   1.000
    C200    C    0.54102   0.42149   0.33247   1.000
    C201    C    0.42987   0.25888   0.39619   1.000
    C202    C    0.92990   0.25816   0.39058   1.000
    C203    C    0.01372   0.28289   0.26841   1.000
    C204    C    0.51225   0.28123   0.27149   1.000
    C205    C    0.47705   0.21021   0.27032   1.000
    C206    C    0.97874   0.21165   0.26544   1.000
    C207    C    0.17821   0.32982   0.26017   1.000
    C208    C    0.67728   0.32755   0.25841   1.000
    C209    C    0.21232   0.25751   0.26248   1.000
    C210    C    0.71144   0.25523   0.25993   1.000
    C211    C    0.46401   0.33112   0.39600   1.000
    C212    C    0.96382   0.33063   0.39232   1.000
    C213    C    0.16619   0.21501   0.39139   1.000
    C214    C    0.66608   0.21219   0.38923   1.000
    C215    C    0.13068   0.28556   0.38728   1.000
    C216    C    0.63050   0.28274   0.38580   1.000
    C217    C    0.20676   0.80238   0.32828   1.000
    C218    C    0.70728   0.79984   0.32863   1.000
    C219    C    0.43697   0.80200   0.32895   1.000
    C220    C    0.93604   0.80225   0.33325   1.000
    C221    C    0.00612   0.65689   0.33388   1.000
    C222    C    0.50677   0.65608   0.33270   1.000
    C223    C    0.13629   0.65742   0.32239   1.000
    C224    C    0.63685   0.65505   0.32231   1.000
    C225    C    0.10150   0.57882   0.32198   1.000
    C226    C    0.60180   0.57680   0.32167   1.000
    C227    C    0.04104   0.57853   0.33230   1.000
    C228    C    0.54137   0.57730   0.33233   1.000
    C229    C    0.43049   0.74208   0.39265   1.000
    C230    C    0.92982   0.74116   0.39585   1.000
    C231    C    0.01266   0.71911   0.27171   1.000
    C232    C    0.51373   0.71727   0.26967   1.000
    C233    C    0.47877   0.78850   0.26705   1.000
    C234    C    0.97748   0.79018   0.27053   1.000
    C235    C    0.17805   0.67204   0.26045   1.000
    C236    C    0.67870   0.66961   0.26052   1.000
    C237    C    0.66624   0.78505   0.39117   1.000
    C238    C    0.13009   0.71721   0.38686   1.000
    C239    C    0.63074   0.71450   0.38709   1.000
    C240    C    0.30350   0.01093   0.94130   1.000
    C241    C    0.80315   0.98707   0.94037   1.000
    C242    C    0.37828   0.99748   0.67449   1.000
    C243    C    0.87783   0.00321   0.67366   1.000
    C244    C    0.27303   0.99865   0.59728   1.000
    C245    C    0.77273   0.99965   0.59610   1.000
    C246    C    0.37298   0.99826   0.58000   1.000
    C247    C    0.87268   0.00330   0.58715   1.000
    C248    C    0.32839   0.99859   0.72323   1.000
    C249    C    0.82788   0.00003   0.72221   1.000
    C250    C    0.27445   0.99901   0.68400   1.000
    C251    C    0.77401   0.99842   0.68280   1.000
    C252    C    0.27023   0.06261   0.99347   1.000
    C253    C    0.76899   0.93693   0.99270   1.000
    C254    C    0.27834   0.05805   0.07938   1.000
    C255    C    0.77731   0.94152   0.07863   1.000
    C256    C    0.34749   0.95275   0.06419   1.000
    C257    C    0.84848   0.04377   0.06280   1.000
    C258    C    0.34273   0.95441   0.97769   1.000
    C259    C    0.84358   0.04196   0.97640   1.000
    C260    C    0.13008   0.50102   0.31618   1.000
    C261    C    0.63008   0.49879   0.31566   1.000
    C262    C    0.01264   0.50053   0.33730   1.000
    C263    C    0.51274   0.49956   0.33803   1.000
    N264    N    0.07109   0.99956   0.45085   1.000
    N265    N    0.57099   0.00056   0.45095   1.000
    N266    N    0.08668   0.00125   0.18996   1.000
    N267    N    0.58727   0.00079   0.19004   1.000
    N268    N    0.06505   0.99437   0.88592   1.000
    N269    N    0.56660   0.00875   0.88627   1.000
    N270    N    0.04270   0.98187   0.14600   1.000
    N271    N    0.54411   0.02384   0.14674   1.000
    N272    N    0.32134   0.99859   0.54990   1.000
    N273    N    0.82111   0.00170   0.54892   1.000
    N274    N    0.33749   0.99715   0.81076   1.000
    N275    N    0.83698   0.00063   0.80973   1.000
    N276    N    0.31627   0.00406   0.11429   1.000
    N277    N    0.81629   0.99409   0.11328   1.000
    N278    N    0.29361   0.01725   0.85417   1.000
    N279    N    0.79295   0.98127   0.85317   1.000
loop_
    _geom_bond_atom_site_label_1
    _geom_bond_atom_site_label_2
    _geom_bond_distance
    _geom_bond_site_symmetry_2
    _ccdc_geom_bond_type
    C180   H41       1.08969  1_455   S
    C180   C168      1.39940      .   S
    C180   C182      1.39158  1_554   S
    C181   H40       1.08911      .   S
    C181   C169      1.39919      .   S
    C181   C183      1.39101  1_554   S
    C186   C168      1.40515  1_545   S
    C186   H46       1.08867      .   S
    C186   C184      1.38392  1_554   S
    C187   C169      1.40429      .   S
    C187   H47       1.08815      .   S
    C187   C185      1.38756  1_554   S
    C168   N270      1.41415      .   S
    C169   N271      1.42324      .   S
    C257   H100      1.09150      .   S
    C257   N277      1.35211  1_545   S
    C257   C259      1.38695  1_554   S
    C256   H99       1.09072      .   S
    C256   N276      1.35130  1_565   S
    C256   C258      1.38822  1_554   S
    C255   N277      1.34975      .   S
    C255   H98       1.09052      .   S
    C255   C253      1.38999  1_554   S
    C254   N276      1.34956      .   S
    C254   H97       1.09054      .   S
    C254   C252      1.38900  1_554   S
    N270   N266      1.27936  1_565   S
    N271   N267      1.27385      .   S
    N266   C176      1.41399  1_545   S
    N267   C177      1.41449      .   S
    H59    C208      1.09108      .   S
    H58    C207      1.09104      .   S
    H74    C235      1.09102      .   S
    H75    C236      1.09134      .   S
    H61    C210      1.08943      .   S
    H76    C119      1.08940      .   S
    H60    C209      1.08965      .   S
    H77    C120      1.08958      .   S
    H57    C206      1.08974      .   S
    H72    C233      1.08960      .   S
    H54    C203      1.08987      .   S
    H56    C205      1.08974      .   S
    H73    C234      1.08978      .   S
    H71    C232      1.08983      .   S
    H55    C204      1.08984      .   S
    H70    C231      1.08982      .   S
    C208   C210      1.39294      .   S
    C208   C196      1.40556      .   S
    C210   C94       1.40164      .   S
    C207   C209      1.39251      .   S
    C207   C195      1.40510      .   S
    C235   C119      1.39267      .   S
    C235   C223      1.40560      .   S
    C236   C120      1.39246      .   S
    C236   C224      1.40525      .   S
    C119   C217      1.40156      .   S
    C209   C93       1.40074      .   S
    C120   C218      1.40143      .   S
    C206   C203      1.39056  1_655   S
    C206   C192      1.40267      .   S
    C233   C232      1.39022      .   S
    C233   C219      1.40285      .   S
    C203   C193      1.40745      .   S
    C232   C222      1.40667      .   S
    C205   C204      1.39004      .   S
    C205   C191      1.40314      .   S
    C234   C231      1.39047  1_655   S
    C234   C220      1.40325      .   S
    C204   C194      1.40711      .   S
    C231   C221      1.40719      .   S
    C176   C178      1.40410      .   S
    C176   C170      1.39805  1_565   S
    C177   C179      1.40393      .   S
    C177   C171      1.39795  1_545   S
    H38    C179      1.08868      .   S
    H39    C178      1.08917  1_655   S
    H32    C170      1.08765      .   S
    H33    C171      1.08756      .   S
    H104   C261      1.09113      .   S
    H103   C260      1.09109      .   S
    C261   C198      1.40149      .   S
    C261   C226      1.40149      .   S
    C260   C197      1.40133      .   S
    C260   C225      1.40166      .   S
    C179   C173      1.38743      .   S
    C178   C172      1.38702      .   S
    C196   C198      1.48369      .   S
    C196   C216      1.40560      .   S
    C198   C200      1.41588      .   S
    C197   C195      1.48231      .   S
    C197   C199      1.41575      .   S
    C226   C224      1.48196      .   S
    C226   C228      1.41595      .   S
    C225   C223      1.48333      .   S
    C225   C227      1.41578      .   S
    C195   C215      1.40603      .   S
    C224   C239      1.40595      .   S
    C223   C238      1.40610      .   S
    C170   C174      1.38849      .   S
    C94    C214      1.40180      .   S
    C171   C175      1.38835      .   S
    C192   C202      1.39939      .   S
    C217   C123      1.40189      .   S
    C93    C213      1.40206      .   S
    C218   C237      1.40137      .   S
    C219   C229      1.39958      .   S
    C193   C199      1.48299      .   S
    C193   C212      1.40531  1_455   S
    C199   C262      1.40116      .   S
    C227   C221      1.48221      .   S
    C227   C262      1.40174      .   S
    C228   C222      1.48342      .   S
    C228   C263      1.40115      .   S
    C200   C194      1.48198      .   S
    C200   C263      1.40174      .   S
    C222   C121      1.40572      .   S
    C220   C230      1.39890      .   S
    C191   C201      1.39894      .   S
    C221   C122      1.40502  1_455   S
    C194   C211      1.40432      .   S
    C262   H106      1.09124  1_455   S
    C263   H105      1.09074      .   S
    C216   C214      1.39052      .   S
    C216   H67       1.09080      .   S
    C238   C123      1.39055      .   S
    C238   H82       1.09026      .   S
    C239   C237      1.38976      .   S
    C239   H83       1.09010      .   S
    C215   C213      1.39002      .   S
    C215   H66       1.09027      .   S
    C214   H65       1.08798      .   S
    C202   C212      1.39176      .   S
    C202   H53       1.08677      .   S
    C123   H80       1.08887      .   S
    C237   H81       1.08779      .   S
    C213   H64       1.08875      .   S
    C212   H63       1.09091      .   S
    C229   C121      1.39212      .   S
    C229   H68       1.08686      .   S
    C121   H78       1.04514      .   S
    C122   C230      1.39144      .   S
    C122   H79       1.09096      .   S
    C230   H69       1.08620      .   S
    C211   C201      1.39141      .   S
    C211   H62       1.09133      .   S
    C201   H52       1.08622      .   S
    C173   H34       1.08814      .   S
    C173   N265      1.35433      .   S
    C172   H35       1.08844  1_455   S
    C172   N264      1.35441      .   S
    C174   N264      1.34806  1_545   S
    C174   H36       1.08756      .   S
    C175   N265      1.34833  1_565   S
    C175   H37       1.08742      .   S
    H89    C247      1.08735      .   S
    H88    C246      1.01789      .   S
    N273   C247      1.34754      .   S
    N273   C245      1.35445  1_545   S
    N272   C246      1.29481      .   S
    N272   C244      1.35445      .   S
    H27    C163      1.09093      .   S
    H29    C165      1.08863      .   S
    H10    C134      1.09090      .   S
    H17    C153      1.08676      .   S
    H0     C124      1.08669      .   S
    H11    C135      1.09096      .   S
    H26    C162      1.09093      .   S
    H12    C136      1.08867      .   S
    H13    C137      1.08849      .   S
    H28    C164      1.08889      .   S
    H1     C125      1.08664      .   S
    H16    C152      1.08672      .   S
    H87    C245      1.08806      .   S
    H31    C167      1.09032      .   S
    H86    C244      1.08813      .   S
    H14    C138      1.09035      .   S
    H15    C139      1.08954      .   S
    H30    C166      1.09018      .   S
    C246   C242      1.51643      .   S
    C247   C243      1.38889      .   S
    C245   C251      1.38710      .   S
    C244   C250      1.38736      .   S
    C163   C153      1.39171      .   S
    C163   C145      1.40460      .   S
    C153   C143      1.39884      .   S
    C124   C134      1.39166      .   S
    C124   C109      1.39897      .   S
    C134   C111      1.40484      .   S
    C135   C125      1.39155      .   S
    C135   C112      1.40474      .   S
    C162   C152      1.39193      .   S
    C162   C144      1.40487      .   S
    C125   C110      1.39905      .   S
    C165   C167      1.39031      .   S
    C165   C141      1.40178      .   S
    C152   C142      1.39919      .   S
    C137   C139      1.39022      .   S
    C137   C108      1.40190      .   S
    C164   C166      1.39021      .   S
    C164   C140      1.40075      .   S
    C136   C138      1.39057      .   S
    C136   C107      1.40204      .   S
    C167   C147      1.40484      .   S
    C139   C114      1.40606      .   S
    C138   C113      1.40612      .   S
    C166   C146      1.40610      .   S
    H51    C92       1.09075      .   S
    H50    C190      1.09078      .   S
    C92    C151      1.40123      .   S
    C92    C118      1.40115      .   S
    C190   C117      1.40172      .   S
    C190   C150      1.40127      .   S
    C145   C151      1.48233      .   S
    C145   C155      1.40714      .   S
    C151   C149      1.41578      .   S
    C111   C117      1.48260      .   S
    C111   C126      1.40717      .   S
    C143   C157      1.40285      .   S
    C112   C118      1.48228      .   S
    C112   C127      1.40733      .   S
    C118   C116      1.41585      .   S
    C109   C128      1.40284      .   S
    C144   C150      1.48317      .   S
    C144   C154      1.40758      .   S
    C117   C115      1.41593      .   S
    C150   C148      1.41615      .   S
    C110   C129      1.40284      .   S
    C141   C161      1.40133      .   S
    C142   C156      1.40290      .   S
    C140   C160      1.40251      .   S
    C108   C133      1.40152      .   S
    C243   H85       1.08751      .   S
    C243   C249      1.39736      .   S
    C242   H84       1.08722      .   S
    C242   C248      1.39721      .   S
    C107   C132      1.40144      .   S
    C147   C149      1.48305      .   S
    C147   C159      1.40637      .   S
    C149   C189      1.40127      .   S
    C114   C116      1.48244      .   S
    C114   C131      1.40601      .   S
    C116   C189      1.40147      .   S
    C146   C148      1.48275      .   S
    C146   C158      1.40542      .   S
    C148   C188      1.40171      .   S
    C113   C115      1.48394      .   S
    C113   C130      1.40562      .   S
    C115   C188      1.40172      .   S
    C251   H91       1.08872      .   S
    C251   C249      1.40383  1_565   S
    C189   H49       1.09108      .   S
    C250   H90       1.08874      .   S
    C250   C248      1.40374      .   S
    C188   H48       1.09111      .   S
    C249   N275      1.41597      .   S
    C248   N274      1.41628      .   S
    C155   C157      1.38980      .   S
    C155   H19       1.08990      .   S
    C126   C128      1.39004      .   S
    C126   H2        1.08982      .   S
    C127   C129      1.38997      .   S
    C127   H3        1.08985      .   S
    C157   H21       1.08951      .   S
    C128   H4        1.08955      .   S
    C154   C156      1.39030      .   S
    C154   H18       1.08918      .   S
    C129   H5        1.08975      .   S
    C156   H20       1.08991      .   S
    C133   C131      1.39246      .   S
    C133   H9        1.08958      .   S
    C160   C158      1.39269      .   S
    C160   H24       1.08950      .   S
    C161   C159      1.39302      .   S
    C161   H25       1.08967      .   S
    C131   H7        1.09105      .   S
    C159   H23       1.09114      .   S
    C158   H22       1.09112      .   S
    C132   C130      1.39339      .   S
    C132   H8        1.08967      .   S
    C130   H6        1.09117      .   S
    N275   N279      1.27418  1_545   S
    N274   N278      1.27397  1_565   S
    N279   C241      1.41792      .   S
    N278   C240      1.41623      .   S
    H43    C182      1.09025  1_655   S
    H42    C183      1.08997      .   S
    N268   C182      1.34767      .   S
    N268   C184      1.35200  1_565   S
    N269   C183      1.34778      .   S
    N269   C185      1.35099      .   S
    H44    C184      1.09021      .   S
    H45    C185      1.08970  1_565   S
    H102   C259      1.08909      .   S
    H101   C258      1.08883      .   S
    C241   C259      1.40401  1_565   S
    C241   C253      1.39969      .   S
    C240   C258      1.40454  1_545   S
    C240   C252      1.40042      .   S
    H96    C253      1.08957      .   S
    H95    C252      1.08955      .   S
