# CIF file generated by openbabel 2.4.90, see http://openbabel.sf.net
data_I
_chemical_name_common ''
_cell_length_a 23.263
_cell_length_b 15.816
_cell_length_c 15.993
_cell_angle_alpha 90.014
_cell_angle_beta 89.916
_cell_angle_gamma 90.006
_space_group_name_H-M_alt 'P 1'
_space_group_name_Hall 'P 1'
loop_
    _symmetry_equiv_pos_as_xyz
    x,y,z
loop_
    _atom_site_label
    _atom_site_type_symbol
    _atom_site_fract_x
    _atom_site_fract_y
    _atom_site_fract_z
    _atom_site_occupancy
    N0      N    0.32091   0.49954   0.67478   1.000
    N1      N    0.57141   0.49916   0.32691   1.000
    N2      N    0.81678   0.99570   0.83140   1.000
    N3      N    0.06663   0.99453   0.16812   1.000
    N4      N    0.56749   0.00850   0.16831   1.000
    N5      N    0.82095   0.50025   0.67287   1.000
    N6      N    0.31706   0.00300   0.83205   1.000
    N7      N    0.07135   0.50079   0.32681   1.000
    Zr8     Zr   0.82164   0.99966   0.33000   1.000
    O9      O    0.76044   0.89123   0.32906   1.000
    O10     O    0.81985   0.99897   0.49396   1.000
    O11     O    0.88310   0.10756   0.32864   1.000
    O12     O    0.76020   0.10714   0.32788   1.000
    O13     O    0.88276   0.89233   0.33151   1.000
    O14     O    0.82018   0.99799   0.16736   1.000
    Zr15    Zr   0.32160   0.00038   0.33111   1.000
    O16     O    0.38319   0.89253   0.33000   1.000
    O17     O    0.31992   0.00077   0.49489   1.000
    O18     O    0.32023   0.00144   0.16829   1.000
    O19     O    0.38266   0.10778   0.33210   1.000
    O20     O    0.26032   0.10869   0.32961   1.000
    O21     O    0.26019   0.89282   0.32946   1.000
    Zr22    Zr   0.57129   0.99971   0.67011   1.000
    O23     O    0.57019   0.00311   0.83257   1.000
    O24     O    0.50978   0.10746   0.67166   1.000
    O25     O    0.63285   0.10738   0.66898   1.000
    O26     O    0.63245   0.89224   0.67043   1.000
    O27     O    0.56980   0.00203   0.50599   1.000
    O28     O    0.50987   0.89183   0.67254   1.000
    Zr29    Zr   0.07104   0.99976   0.66966   1.000
    O30     O    0.01007   0.10821   0.67089   1.000
    O31     O    0.13201   0.89163   0.66905   1.000
    O32     O    0.00922   0.89255   0.67134   1.000
    O33     O    0.13283   0.10676   0.67069   1.000
    O34     O    0.06958   0.99778   0.83222   1.000
    O35     O    0.06949   0.99842   0.50569   1.000
loop_
    _geom_bond_atom_site_label_1
    _geom_bond_atom_site_label_2
    _geom_bond_distance
    _geom_bond_site_symmetry_2
    _ccdc_geom_bond_type
    Zr8    O9        2.22872      .   S
    N1     O9        7.60172      .   S
    Zr8    O10       2.62255      .   S
    N2     O10       5.39715      .   S
    Zr8    O11       2.22623  1_565   S
    N7     O11       7.60618  1_455   S
    Zr8    O12       2.22149  1_565   S
    N1     O12       7.59848      .   S
    Zr8    O13       2.21444      .   S
    N7     O13       7.58998  1_455   S
    Zr8    O14       2.60155      .   S
    N2     O14       5.37387  1_556   S
    Zr15   O16       2.22780  1_545   S
    N1     O16       7.60823      .   S
    Zr15   O17       2.61962      .   S
    N6     O17       5.39266      .   S
    Zr15   O18       2.60423      .   S
    N6     O18       5.37813  1_556   S
    Zr15   O19       2.21417      .   S
    N1     O19       7.58939      .   S
    Zr15   O20       2.22892      .   S
    N7     O20       7.60199      .   S
    Zr15   O21       2.22142  1_545   S
    N7     O21       7.59870      .   S
    Zr22   O23       2.59890  1_565   S
    N4     O23       5.37043  1_554   S
    Zr22   O24       2.22553  1_565   S
    N0     O24       7.60030      .   S
    Zr22   O25       2.22500  1_565   S
    N5     O25       7.59978      .   S
    Zr22   O26       2.21663      .   S
    N5     O26       7.59446      .   S
    Zr22   O27       2.62523  1_565   S
    N4     O27       5.40189      .   S
    Zr22   O28       2.22563      .   S
    N0     O28       7.60346      .   S
    Zr29   O30       2.22584  1_565   S
    N5     O30       7.60311  1_655   S
    Zr29   O31       2.22201      .   S
    N0     O31       7.60144      .   S
    Zr29   O32       2.22340      .   S
    N5     O32       7.59427  1_655   S
    Zr29   O33       2.22026  1_565   S
    N0     O33       7.59841      .   S
    Zr29   O34       2.60025      .   S
    N3     O34       5.37269  1_554   S
    Zr29   O35       2.62273      .   S
    N3     O35       5.39952      .   S
