# CIF file generated by openbabel 2.4.90, see http://openbabel.sf.net
data_I
_chemical_name_common ''
_cell_length_a 15.345
_cell_length_b 15.371
_cell_length_c 22.383
_cell_angle_alpha 84.315
_cell_angle_beta 87.394
_cell_angle_gamma 81.031
_space_group_name_H-M_alt 'P 1'
_space_group_name_Hall 'P 1'
loop_
    _symmetry_equiv_pos_as_xyz
    x,y,z
loop_
    _atom_site_label
    _atom_site_type_symbol
    _atom_site_fract_x
    _atom_site_fract_y
    _atom_site_fract_z
    _atom_site_occupancy
    Zn0     Zn   0.30503   0.12565   0.19506   1.000
    Zn1     Zn   0.69998   0.89286   0.67943   1.000
    Zn2     Zn   0.69504   0.87436   0.80494   1.000
    H3      H    0.22520   0.24183   0.08960   1.000
    H4      H    0.22512   0.23953   0.97763   1.000
    H5      H    0.40760   0.00000   0.00000   1.000
    H6      H    0.40085   0.00745   0.10791   1.000
    H7      H    0.53339   0.11157   0.80362   1.000
    H8      H    0.53063   0.10732   0.69214   1.000
    H9      H    0.09274   0.09674   0.71244   1.000
    H10     H    0.09487   0.10365   0.82428   1.000
    H11     H    0.20799   0.21413   0.52640   1.000
    H12     H    0.20723   0.21139   0.41445   1.000
    H13     H    0.39685   0.98715   0.41927   1.000
    H14     H    0.40564   0.98056   0.53100   1.000
    H15     H    0.27176   0.85799   0.16773   1.000
    H16     H    0.26589   0.69747   0.16637   1.000
    H17     H    0.33446   0.65528   0.35277   1.000
    H18     H    0.33586   0.81646   0.35392   1.000
    H19     H    0.34773   0.56200   0.16719   1.000
    H20     H    0.34266   0.40118   0.16640   1.000
    H21     H    0.24640   0.38921   0.34928   1.000
    H22     H    0.24672   0.55078   0.35024   1.000
    H23     H    0.01984   0.18741   0.16506   1.000
    H24     H    0.85805   0.18746   0.16495   1.000
    H25     H    0.86705   0.06493   0.34718   1.000
    H26     H    0.02725   0.07039   0.34708   1.000
    H27     H    0.75078   0.11140   0.16050   1.000
    H28     H    0.58973   0.10515   0.16094   1.000
    H29     H    0.57169   0.12560   0.35057   1.000
    H30     H    0.73203   0.13511   0.35114   1.000
    H31     H    0.77483   0.75816   0.91041   1.000
    Zn32    Zn   0.30004   0.10716   0.32057   1.000
    H33     H    0.77488   0.76048   0.02237   1.000
    H34     H    0.59239   0.00519   0.00229   1.000
    H35     H    0.59916   0.99254   0.89208   1.000
    H36     H    0.46660   0.88846   0.19638   1.000
    H37     H    0.46936   0.89273   0.30785   1.000
    H38     H    0.90726   0.90326   0.28756   1.000
    H39     H    0.90512   0.89637   0.17572   1.000
    H40     H    0.79202   0.78588   0.47361   1.000
    H41     H    0.79278   0.78864   0.58555   1.000
    H42     H    0.60315   0.01288   0.58073   1.000
    H43     H    0.59435   0.01945   0.46900   1.000
    H44     H    0.72825   0.14204   0.83228   1.000
    H45     H    0.73411   0.30257   0.83363   1.000
    H46     H    0.66553   0.34474   0.64724   1.000
    H47     H    0.66414   0.18356   0.64609   1.000
    H48     H    0.65227   0.43803   0.83281   1.000
    H49     H    0.65735   0.59885   0.83360   1.000
    H50     H    0.75362   0.61081   0.65072   1.000
    H51     H    0.75328   0.44924   0.64976   1.000
    H52     H    0.00000   0.81263   0.83493   1.000
    H53     H    0.14196   0.81259   0.83506   1.000
    H54     H    0.13297   0.93512   0.65283   1.000
    H55     H    0.97279   0.92963   0.65292   1.000
    H56     H    0.24925   0.88862   0.83951   1.000
    H57     H    0.41031   0.89487   0.83907   1.000
    H58     H    0.42832   0.87447   0.64943   1.000
    H59     H    0.26798   0.86496   0.64886   1.000
    C60     C    0.26481   0.18882   0.06704   1.000
    C61     C    0.26508   0.18724   0.00509   1.000
    C62     C    0.31650   0.11675   0.97926   1.000
    C63     C    0.36661   0.05083   0.01598   1.000
    C64     C    0.36302   0.05758   0.07757   1.000
    C65     C    0.23305   0.11080   0.88991   1.000
    C66     C    0.23365   0.10785   0.82417   1.000
    C67     C    0.31326   0.10821   0.78976   1.000
    C68     C    0.39448   0.10991   0.81697   1.000
    C69     C    0.39837   0.10964   0.88281   1.000
    C70     C    0.47160   0.11048   0.78194   1.000
    C71     C    0.47006   0.10869   0.71946   1.000
    C72     C    0.39155   0.10523   0.69188   1.000
    C73     C    0.31191   0.10508   0.72642   1.000
    C74     C    0.23128   0.10069   0.69953   1.000
    C75     C    0.15373   0.10068   0.73431   1.000
    C76     C    0.15499   0.10430   0.79654   1.000
    C77     C    0.22860   0.09499   0.63424   1.000
    C78     C    0.39241   0.10169   0.62612   1.000
    C79     C    0.30713   0.09726   0.53697   1.000
    C80     C    0.25060   0.16287   0.50421   1.000
    C81     C    0.24952   0.16144   0.44235   1.000
    C82     C    0.35582   0.03584   0.44477   1.000
    C83     C    0.36060   0.03250   0.50691   1.000
    C84     C    0.30735   0.94419   0.26115   1.000
    C85     C    0.30444   0.84726   0.26077   1.000
    C86     C    0.28545   0.81273   0.20796   1.000
    C87     C    0.28296   0.72278   0.20742   1.000
    C88     C    0.29993   0.66417   0.25948   1.000
    C89     C    0.31924   0.69948   0.31219   1.000
    C90     C    0.32110   0.78954   0.31294   1.000
    C91     C    0.29749   0.56855   0.25879   1.000
    C92     C    0.32365   0.52497   0.20699   1.000
    C93     C    0.32165   0.43492   0.20636   1.000
    C94     C    0.29405   0.38528   0.25771   1.000
    C95     C    0.26796   0.42802   0.30954   1.000
    C96     C    0.26925   0.51822   0.30998   1.000
    C97     C    0.29415   0.28778   0.25743   1.000
    C98     C    0.13129   0.12941   0.25605   1.000
    C99     C    0.03353   0.12948   0.25616   1.000
    C100    C    0.98517   0.16142   0.20479   1.000
    C101    C    0.89473   0.16025   0.20486   1.000
    C102    C    0.84969   0.12626   0.25605   1.000
    C103    C    0.89902   0.09412   0.30734   1.000
    C104    C    0.98932   0.09598   0.30745   1.000
    C105    C    0.75398   0.12319   0.25587   1.000
    C106    C    0.71192   0.11559   0.20240   1.000
    C107    C    0.62208   0.11108   0.20236   1.000
    C108    C    0.57120   0.11345   0.25590   1.000
    C109    C    0.61213   0.12195   0.30934   1.000
    C110    C    0.70184   0.12673   0.30934   1.000
    C111    C    0.47467   0.10720   0.25633   1.000
    C112    C    0.73522   0.81118   0.93297   1.000
    C113    C    0.73493   0.81276   0.99491   1.000
    C114    C    0.68350   0.88325   0.02074   1.000
    C115    C    0.63340   0.94916   0.98402   1.000
    C116    C    0.63699   0.94242   0.92243   1.000
    C117    C    0.76695   0.88923   0.11008   1.000
    C118    C    0.76634   0.89214   0.17583   1.000
    C119    C    0.68673   0.89180   0.21024   1.000
    C120    C    0.60552   0.89006   0.18303   1.000
    C121    C    0.60162   0.89035   0.11719   1.000
    C122    C    0.52839   0.88955   0.21805   1.000
    C123    C    0.52994   0.89134   0.28054   1.000
    C124    C    0.60844   0.89477   0.30812   1.000
    C125    C    0.68808   0.89493   0.27358   1.000
    C126    C    0.76872   0.89928   0.30047   1.000
    C127    C    0.84626   0.89933   0.26568   1.000
    C128    C    0.84500   0.89571   0.20345   1.000
    C129    C    0.77139   0.90502   0.36576   1.000
    C130    C    0.60759   0.89831   0.37388   1.000
    C131    C    0.69287   0.90275   0.46303   1.000
    C132    C    0.74940   0.83715   0.49579   1.000
    C133    C    0.75049   0.83859   0.55765   1.000
    C134    C    0.64418   0.96419   0.55523   1.000
    C135    C    0.63940   0.96751   0.49309   1.000
    C136    C    0.69266   0.05583   0.73887   1.000
    C137    C    0.69557   0.15276   0.73925   1.000
    C138    C    0.71456   0.18730   0.79205   1.000
    C139    C    0.71704   0.27725   0.79259   1.000
    C140    C    0.70006   0.33586   0.74053   1.000
    C141    C    0.68075   0.30054   0.68782   1.000
    C142    C    0.67890   0.21048   0.68707   1.000
    C143    C    0.70251   0.43148   0.74121   1.000
    C144    C    0.67635   0.47506   0.79302   1.000
    C145    C    0.67835   0.56511   0.79364   1.000
    C146    C    0.70595   0.61475   0.74228   1.000
    C147    C    0.73205   0.57200   0.69046   1.000
    C148    C    0.73076   0.48180   0.69002   1.000
    C149    C    0.70589   0.71224   0.74257   1.000
    C150    C    0.86875   0.87057   0.74394   1.000
    C151    C    0.96649   0.87057   0.74384   1.000
    C152    C    0.01485   0.83862   0.79521   1.000
    C153    C    0.10529   0.83980   0.79514   1.000
    C154    C    0.15034   0.87377   0.74396   1.000
    C155    C    0.10102   0.90592   0.69266   1.000
    C156    C    0.01071   0.90406   0.69254   1.000
    C157    C    0.24604   0.87687   0.74414   1.000
    C158    C    0.28812   0.88444   0.79762   1.000
    C159    C    0.37795   0.88894   0.79765   1.000
    C160    C    0.42883   0.88658   0.74410   1.000
    C161    C    0.38789   0.87810   0.69066   1.000
    C162    C    0.29818   0.87333   0.69066   1.000
    C163    C    0.52535   0.89287   0.74367   1.000
    N164    N    0.31281   0.12510   0.10277   1.000
    N165    N    0.31633   0.11248   0.91536   1.000
    N166    N    0.30975   0.09765   0.60105   1.000
    N167    N    0.30117   0.09915   0.41304   1.000
    N168    N    0.68722   0.87490   0.89723   1.000
    N169    N    0.68367   0.88750   0.08465   1.000
    N170    N    0.69026   0.90234   0.39895   1.000
    N171    N    0.69883   0.90088   0.58696   1.000
    O172    O    0.16625   0.11104   0.92202   1.000
    O173    O    0.46723   0.10765   0.90910   1.000
    O174    O    0.16131   0.08798   0.60878   1.000
    O175    O    0.45898   0.10332   0.59379   1.000
    O176    O    0.43333   0.11145   0.30688   1.000
    O177    O    0.44144   0.09779   0.20665   1.000
    O178    O    0.16921   0.15152   0.20625   1.000
    O179    O    0.16897   0.10622   0.30598   1.000
    O180    O    0.32199   0.97191   0.31106   1.000
    O181    O    0.29653   0.00000   0.21120   1.000
    O182    O    0.27752   0.24476   0.30718   1.000
    O183    O    0.31191   0.25509   0.20726   1.000
    O184    O    0.83375   0.88896   0.07798   1.000
    O185    O    0.53277   0.89233   0.09089   1.000
    O186    O    0.83869   0.91200   0.39121   1.000
    O187    O    0.54102   0.89668   0.40621   1.000
    O188    O    0.56669   0.88854   0.69312   1.000
    O189    O    0.55860   0.90230   0.79334   1.000
    O190    O    0.83083   0.84848   0.79375   1.000
    O191    O    0.83105   0.89383   0.69402   1.000
    O192    O    0.67802   0.02810   0.68896   1.000
    O193    O    0.70353   0.00850   0.78881   1.000
    O194    O    0.72251   0.75526   0.69281   1.000
    O195    O    0.68809   0.74494   0.79273   1.000
loop_
    _geom_bond_atom_site_label_1
    _geom_bond_atom_site_label_2
    _geom_bond_distance
    _geom_bond_site_symmetry_2
    _ccdc_geom_bond_type
    H5     C63       1.00782      .   S
    H34    C115      1.08738  1_544   S
    C61    C60       1.38886      .   S
    C61    H4        1.08739  1_554   S
    C61    C62       1.39532  1_554   S
    C63    C64       1.39066      .   S
    C63    C62       1.39382  1_554   S
    C114   N169      1.43856      .   S
    C114   C115      1.39380  1_554   S
    C114   C113      1.39533  1_554   S
    H33    C113      1.08739  1_554   S
    C60    H3        1.08982      .   S
    C60    N164      1.34717      .   S
    C64    N164      1.34772      .   S
    C64    H6        1.08837      .   S
    O184   C117      1.22455      .   S
    N169   C117      1.42745      .   S
    N169   C121      1.42243      .   S
    O185   C121      1.22747      .   S
    N164   Zn0       2.06439      .   S
    C117   C118      1.47629      .   S
    C121   C120      1.47713      .   S
    H27    C106      1.09009      .   S
    H28    C107      1.08955      .   S
    H24    C101      1.09007      .   S
    H23    C100      1.08916  1_455   S
    H16    C87       1.09028      .   S
    H20    C93       1.08921      .   S
    H19    C92       1.09042      .   S
    H15    C86       1.08934      .   S
    H39    C128      1.08905      .   S
    C118   C128      1.39196      .   S
    C118   C119      1.41470      .   S
    C120   C119      1.41677      .   S
    C120   C122      1.39025      .   S
    Zn0    O178      2.06842      .   S
    Zn0    O177      2.09284      .   S
    Zn0    O183      2.05427      .   S
    Zn0    O181      1.95290      .   S
    H36    C122      1.08775      .   S
    C107   C106      1.39101      .   S
    C107   C108      1.40073      .   S
    C106   C105      1.40857      .   S
    C128   C127      1.40061      .   S
    C100   C101      1.39068      .   S
    C100   C99       1.40197  1_655   S
    C101   C102      1.40896      .   S
    O178   C98       1.27444      .   S
    C93    C92       1.39071      .   S
    C93    C94       1.40201      .   S
    O177   C111      1.27437      .   S
    C92    C91       1.40799      .   S
    O183   C97       1.27629      .   S
    C87    C86       1.39038      .   S
    C87    C88       1.40837      .   S
    C86    C85       1.40261      .   S
    C119   C125      1.42440      .   S
    O181   C84       1.34013  1_545   S
    C122   C123      1.40303      .   S
    C105   C102      1.47694      .   S
    C105   C110      1.40999      .   S
    C108   C111      1.49864      .   S
    C108   C109      1.40265      .   S
    C102   C103      1.40906      .   S
    C98    C99       1.49974      .   S
    C98    O179      1.27520      .   S
    C99    C104      1.40171  1_455   S
    C111   O176      1.27418      .   S
    C97    C94       1.49907      .   S
    C97    O182      1.27414      .   S
    C94    C95       1.40158      .   S
    C91    C88       1.47770      .   S
    C91    C96       1.40807      .   S
    C88    C89       1.40831      .   S
    C85    C84       1.49834      .   S
    C85    C90       1.40262      .   S
    C84    O180      1.27549      .   S
    C127   H38       1.08836      .   S
    C127   C126      1.39210      .   S
    C125   C126      1.41404      .   S
    C125   C124      1.41631      .   S
    C123   H37       1.08764      .   S
    C123   C124      1.38895      .   S
    C126   C129      1.47554      .   S
    O179   Zn32      2.05466      .   S
    O176   Zn32      2.06473      .   S
    O182   Zn32      2.08292      .   S
    C103   C104      1.39063      .   S
    C103   H25       1.08920      .   S
    C104   H26       1.08924  1_655   S
    C124   C130      1.47768      .   S
    C110   C109      1.38988      .   S
    C110   H30       1.09017      .   S
    C109   H29       1.08951      .   S
    C95    C96       1.39072      .   S
    C95    H21       1.08909      .   S
    C96    H22       1.09040      .   S
    O180   Zn32      2.08405  1_565   S
    C89    C90       1.39083      .   S
    C89    H17       1.09027      .   S
    C90    H18       1.08955      .   S
    Zn32   N167      2.06193      .   S
    C129   O186      1.22584      .   S
    C129   N170      1.42460      .   S
    C130   N170      1.42263      .   S
    C130   O187      1.22678      .   S
    N170   C131      1.43740      .   S
    N167   C81       1.34750      .   S
    N167   C82       1.34819      .   S
    H12    C81       1.08948      .   S
    H13    C82       1.08965  1_565   S
    C81    C80       1.38787      .   S
    C82    C83       1.39156      .   S
    C131   C135      1.39443      .   S
    C131   C132      1.39491      .   S
    H43    C135      1.08741  1_545   S
    H40    C132      1.08741      .   S
    C135   C134      1.39158      .   S
    C132   C133      1.38788      .   S
    C80    H11       1.08741      .   S
    C80    C79       1.39489      .   S
    C83    H14       1.08741  1_545   S
    C83    C79       1.39442      .   S
    C79    N166      1.43738      .   S
    C134   H42       1.08966  1_565   S
    C134   N171      1.34818      .   S
    C133   H41       1.08948      .   S
    C133   N171      1.34750      .   S
    N171   Zn1       2.06189      .   S
    O175   C78       1.22678      .   S
    N166   C78       1.42261      .   S
    N166   C77       1.42460      .   S
    O174   C77       1.22584      .   S
    C78    C72       1.47767      .   S
    C77    C74       1.47553      .   S
    H47    C142      1.08955      .   S
    H46    C141      1.09027      .   S
    H59    C162      1.09016      .   S
    H58    C161      1.08950      .   S
    H51    C148      1.09040      .   S
    H50    C147      1.08910      .   S
    H54    C155      1.08919      .   S
    H55    C156      1.08925  1_655   S
    Zn1    O192      2.08412  1_565   S
    Zn1    O194      2.08293      .   S
    Zn1    O188      2.06468      .   S
    Zn1    O191      2.05481      .   S
    C142   C141      1.39083      .   S
    C142   C137      1.40264      .   S
    C141   C140      1.40833      .   S
    O192   C136      1.27547      .   S
    C148   C147      1.39071      .   S
    C148   C143      1.40809      .   S
    C147   C146      1.40159      .   S
    C161   C162      1.38988      .   S
    C161   C160      1.40267      .   S
    C162   C157      1.41002      .   S
    C72    C71       1.38895      .   S
    C72    C73       1.41630      .   S
    H8     C71       1.08763      .   S
    C156   C155      1.39062      .   S
    C156   C151      1.40171  1_455   S
    C155   C154      1.40909      .   S
    O194   C149      1.27414      .   S
    O188   C163      1.27421      .   S
    O191   C150      1.27518      .   S
    C74    C73       1.41404      .   S
    C74    C75       1.39211      .   S
    H9     C75       1.08835      .   S
    C71    C70       1.40300      .   S
    C73    C67       1.42442      .   S
    C75    C76       1.40061      .   S
    C136   C137      1.49838      .   S
    C136   O193      1.27467      .   S
    C137   C138      1.40258      .   S
    C140   C143      1.47769      .   S
    C140   C139      1.40837      .   S
    C143   C144      1.40799      .   S
    C146   C149      1.49905      .   S
    C146   C145      1.40201      .   S
    C149   O195      1.27628      .   S
    C163   C160      1.49869      .   S
    C163   O189      1.27436      .   S
    C151   C150      1.49969      .   S
    C151   C152      1.40199  1_655   S
    C150   O190      1.27447      .   S
    C154   C157      1.47694      .   S
    C154   C153      1.40898      .   S
    C160   C159      1.40076      .   S
    C157   C158      1.40861      .   S
    C70    H7        1.08773      .   S
    C70    C68       1.39025      .   S
    O193   Zn2       2.08096  1_545   S
    C67    C68       1.41674      .   S
    C67    C66       1.41470      .   S
    C138   C139      1.39038      .   S
    C138   H44       1.08934      .   S
    C139   H45       1.09026      .   S
    O195   Zn2       2.05425      .   S
    C144   C145      1.39070      .   S
    C144   H48       1.09043      .   S
    O189   Zn2       2.09347      .   S
    C145   H49       1.08921      .   S
    O190   Zn2       2.06802      .   S
    C153   C152      1.39066      .   S
    C153   H53       1.09008      .   S
    C152   H52       0.97050      .   S
    C76    C66       1.39195      .   S
    C76    H10       1.08904      .   S
    C158   C159      1.39102      .   S
    C158   H56       1.09006      .   S
    C159   H57       1.08955      .   S
    Zn2    N168      2.06444      .   S
    C68    C69       1.47711      .   S
    C66    C65       1.47629      .   S
    C69    O173      1.22747      .   S
    C69    N165      1.42241      .   S
    C65    N165      1.42747      .   S
    C65    O172      1.22454      .   S
    H35    C116      1.08836      .   S
    N168   C116      1.34770      .   S
    N168   C112      1.34719      .   S
    H31    C112      1.08981      .   S
    N165   C62       1.43858      .   S
    C116   C115      1.39070      .   S
    C112   C113      1.38888      .   S
    Zn32   Zn0       2.79431      .   S
    Zn1    Zn2       2.79433      .   S
