# CIF file generated by openbabel 2.4.90, see http://openbabel.sf.net
data_I
_chemical_name_common ''
_cell_length_a 15.345
_cell_length_b 15.371
_cell_length_c 22.383
_cell_angle_alpha 84.315
_cell_angle_beta 87.394
_cell_angle_gamma 81.031
_space_group_name_H-M_alt 'P 1'
_space_group_name_Hall 'P 1'
loop_
    _symmetry_equiv_pos_as_xyz
    x,y,z
loop_
    _atom_site_label
    _atom_site_type_symbol
    _atom_site_fract_x
    _atom_site_fract_y
    _atom_site_fract_z
    _atom_site_occupancy
    Zn0     Zn   0.30503   0.12565   0.19506   1.000
    Zn1     Zn   0.69998   0.89286   0.67943   1.000
    Zn2     Zn   0.69504   0.87436   0.80494   1.000
    Zn3     Zn   0.30004   0.10716   0.32057   1.000
loop_
    _geom_bond_atom_site_label_1
    _geom_bond_atom_site_label_2
    _geom_bond_distance
    _geom_bond_site_symmetry_2
    _ccdc_geom_bond_type
    Zn3    Zn0       2.79431      .   S
    Zn1    Zn2       2.79433      .   S
