# CIF file generated by openbabel 2.4.90, see http://openbabel.sf.net
data_I
_chemical_name_common ''
_cell_length_a 15.345
_cell_length_b 15.371
_cell_length_c 22.383
_cell_angle_alpha 84.315
_cell_angle_beta 87.394
_cell_angle_gamma 81.031
_space_group_name_H-M_alt 'P 1'
_space_group_name_Hall 'P 1'
loop_
    _symmetry_equiv_pos_as_xyz
    x,y,z
loop_
    _atom_site_label
    _atom_site_type_symbol
    _atom_site_fract_x
    _atom_site_fract_y
    _atom_site_fract_z
    _atom_site_occupancy
    Zr0     Zr   0.30004   0.10716   0.32057   1.000
    Zr1     Zr   0.30503   0.12565   0.19506   1.000
    Zr2     Zr   0.69998   0.89286   0.67943   1.000
    Zr3     Zr   0.69504   0.87436   0.80494   1.000
    O4      O    0.30253   0.11640   0.25781   1.000
    O5      O    0.69751   0.88361   0.74218   1.000
    N6      N    0.70046   0.38381   0.74080   1.000
    O7      O    0.69988   0.16262   0.76884   1.000
    O8      O    0.69602   0.59673   0.76982   1.000
    O9      O    0.70585   0.60393   0.71346   1.000
    O10     O    0.69473   0.17215   0.71250   1.000
    N11     N    0.31138   0.10716   0.75815   1.000
    O12     O    0.31015   0.11627   0.95353   1.000
    O13     O    0.30599   0.10516   0.56248   1.000
    N14     N    0.80230   0.12194   0.25605   1.000
    O15     O    0.01840   0.11432   0.28466   1.000
    O16     O    0.58449   0.11562   0.28489   1.000
    O17     O    0.01971   0.13026   0.22835   1.000
    O18     O    0.58777   0.11683   0.22845   1.000
    N19     N    0.19848   0.87809   0.74395   1.000
    O20     O    0.41265   0.88321   0.77154   1.000
    O21     O    0.98071   0.86976   0.77165   1.000
    O22     O    0.41591   0.88440   0.71511   1.000
    O23     O    0.98200   0.88572   0.71534   1.000
    N24     N    0.68862   0.89296   0.24189   1.000
    O25     O    0.68988   0.88380   0.04649   1.000
    O26     O    0.69401   0.89492   0.43754   1.000
    N27     N    0.29954   0.61654   0.25920   1.000
    O28     O    0.29416   0.39625   0.28654   1.000
    O29     O    0.30528   0.82804   0.28751   1.000
    O30     O    0.30016   0.83968   0.23117   1.000
    O31     O    0.30400   0.40345   0.23018   1.000
loop_
    _geom_bond_atom_site_label_1
    _geom_bond_atom_site_label_2
    _geom_bond_distance
    _geom_bond_site_symmetry_2
    _ccdc_geom_bond_type
    Zr0    O4        1.39715      .   S
    Zr1    O4        1.39715      .   S
    Zr2    O5        1.39717      .   S
    Zr3    O5        1.39717      .   S
    N6     O7        3.39701      .   S
    Zr3    O7        4.43603  1_565   S
    N6     O8        3.38898      .   S
    Zr3    O8        4.41284      .   S
    N6     O9        3.39146      .   S
    Zr2    O9        4.41843      .   S
    N6     O10       3.39073      .   S
    Zr2    O10       4.41587  1_565   S
    N11    O12       4.38835      .   S
    Zr1    O12       5.41884  1_554   S
    N11    O13       4.38758      .   S
    Zr0    O13       5.41657      .   S
    N14    O15       3.38776  1_655   S
    Zr0    O15       4.41415      .   S
    N14    O16       3.38963      .   S
    Zr0    O16       4.42126      .   S
    N14    O17       3.38523  1_655   S
    Zr1    O17       4.39841      .   S
    N14    O18       3.39125      .   S
    Zr1    O18       4.41502      .   S
    N19    O20       3.38571      .   S
    Zr3    O20       4.40967      .   S
    N19    O21       3.39077  1_455   S
    Zr3    O21       4.40374      .   S
    N19    O22       3.38381      .   S
    Zr2    O22       4.41540      .   S
    N19    O23       3.39358  1_455   S
    Zr2    O23       4.42005      .   S
    N24    O25       4.38902      .   S
    Zr3    O25       5.41952  1_556   S
    N24    O26       4.38691      .   S
    Zr2    O26       5.41589      .   S
    N27    O28       3.39396      .   S
    Zr0    O28       4.42094      .   S
    N27    O29       3.38822      .   S
    Zr0    O29       4.41331  1_545   S
    N27    O30       3.42659      .   S
    Zr1    O30       4.40151  1_545   S
    N27    O31       3.39146      .   S
    Zr1    O31       4.41536      .   S
