# CIF file generated by openbabel 2.4.90, see http://openbabel.sf.net
data_I
_chemical_name_common ''
_cell_length_a 13.687
_cell_length_b 17.852
_cell_length_c 21.787
_cell_angle_alpha 89.91
_cell_angle_beta 89.977
_cell_angle_gamma 89.998
_space_group_name_H-M_alt 'P 1'
_space_group_name_Hall 'P 1'
loop_
    _symmetry_equiv_pos_as_xyz
    x,y,z
loop_
    _atom_site_label
    _atom_site_type_symbol
    _atom_site_fract_x
    _atom_site_fract_y
    _atom_site_fract_z
    _atom_site_occupancy
    Zr0     Zr   0.69727   0.87356   0.14849   1.000
    Zr1     Zr   0.67597   0.05892   0.23460   1.000
    Zr2     Zr   0.85185   0.20114   0.21502   1.000
    Zr3     Zr   0.30271   0.12855   0.64930   1.000
    Zr4     Zr   0.32303   0.94338   0.73579   1.000
    Zr5     Zr   0.14768   0.80182   0.71464   1.000
    Zr6     Zr   0.80282   0.37349   0.14920   1.000
    Zr7     Zr   0.82343   0.55883   0.23526   1.000
    Zr8     Zr   0.64785   0.70091   0.21490   1.000
    Zr9     Zr   0.19685   0.62877   0.64912   1.000
    Zr10    Zr   0.17653   0.44341   0.73548   1.000
    Zr11    Zr   0.35211   0.30146   0.71472   1.000
    N12     N    0.19728   0.96378   0.06000   1.000
    O13     O    0.98025   0.93786   0.10648   1.000
    O14     O    0.16875   0.89114   0.91154   1.000
    O15     O    0.25123   0.93797   0.91929   1.000
    O16     O    0.97467   0.01370   0.13730   1.000
    O17     O    0.01864   0.04925   0.13241   1.000
    O18     O    0.42613   0.94637   0.10450   1.000
    N19     N    0.17272   0.70052   0.01919   1.000
    O20     O    0.40313   0.77327   0.07144   1.000
    O21     O    0.94931   0.69807   0.10864   1.000
    O22     O    0.17544   0.60104   0.89145   1.000
    O23     O    0.17628   0.67536   0.85793   1.000
    O24     O    0.16399   0.71862   0.87431   1.000
    O25     O    0.96387   0.76625   0.07603   1.000
    O26     O    0.37857   0.70465   0.10190   1.000
    N27     N    0.30174   0.46446   0.06012   1.000
    O28     O    0.07341   0.44663   0.10532   1.000
    O29     O    0.52460   0.51397   0.13755   1.000
    O30     O    0.48071   0.54949   0.13246   1.000
    O31     O    0.33068   0.39138   0.91161   1.000
    O32     O    0.24817   0.43838   0.91925   1.000
    O33     O    0.51923   0.43815   0.10670   1.000
    N34     N    0.69878   0.53793   0.56006   1.000
    O35     O    0.75224   0.56418   0.41893   1.000
    O36     O    0.92665   0.55568   0.60508   1.000
    O37     O    0.48090   0.56418   0.60633   1.000
    O38     O    0.66950   0.61078   0.41170   1.000
    O39     O    0.47576   0.48855   0.63776   1.000
    O40     O    0.51965   0.45306   0.63257   1.000
    N41     N    0.80087   0.03782   0.56020   1.000
    O42     O    0.01871   0.06407   0.60639   1.000
    O43     O    0.83022   0.11082   0.41177   1.000
    O44     O    0.74745   0.06409   0.41878   1.000
    O45     O    0.57304   0.05560   0.60563   1.000
    O46     O    0.02389   0.98852   0.63793   1.000
    O47     O    0.98005   0.95313   0.63264   1.000
    N48     N    0.82728   0.30142   0.51971   1.000
    O49     O    0.03619   0.23598   0.57677   1.000
    O50     O    0.62126   0.29735   0.60196   1.000
    O51     O    0.05062   0.30433   0.60895   1.000
    O52     O    0.82355   0.32695   0.35834   1.000
    O53     O    0.83581   0.28386   0.37480   1.000
    O54     O    0.82454   0.40119   0.39189   1.000
    O55     O    0.59730   0.22825   0.57216   1.000
    N56     N    0.67250   0.80201   0.51924   1.000
    O57     O    0.46362   0.73629   0.57644   1.000
    O58     O    0.67522   0.90147   0.39107   1.000
    O59     O    0.44908   0.80480   0.60850   1.000
    O60     O    0.87849   0.79820   0.60166   1.000
    O61     O    0.90246   0.72901   0.57192   1.000
    O62     O    0.67628   0.82717   0.35770   1.000
    O63     O    0.66392   0.78401   0.37430   1.000
    N64     N    0.32697   0.20074   0.01902   1.000
    O65     O    0.12119   0.20495   0.10189   1.000
    O66     O    0.32335   0.17536   0.85793   1.000
    O67     O    0.33570   0.21859   0.87429   1.000
    O68     O    0.32339   0.10115   0.89145   1.000
    O69     O    0.53602   0.26637   0.07612   1.000
    O70     O    0.09672   0.27344   0.07154   1.000
    O71     O    0.55037   0.19825   0.10855   1.000
    O72     O    0.40830   0.00060   0.13368   1.000
    O73     O    0.59062   0.00113   0.63470   1.000
    O74     O    0.09110   0.50119   0.13421   1.000
    O75     O    0.90914   0.50126   0.63427   1.000
loop_
    _geom_bond_atom_site_label_1
    _geom_bond_atom_site_label_2
    _geom_bond_distance
    _geom_bond_site_symmetry_2
    _ccdc_geom_bond_type
    N12    O13       3.17152  1_455   S
    Zr0    O13       4.14136      .   S
    N12    O14       3.50869  1_554   S
    Zr5    O14       4.58810      .   S
    N12    O15       3.18733  1_554   S
    Zr4    O15       4.11752      .   S
    N12    O16       3.59365  1_465   S
    Zr1    O16       4.67522      .   S
    N12    O17       3.28623  1_565   S
    Zr2    O17       3.97670  1_655   S
    N12    O18       3.29389      .   S
    Zr0    O18       4.04704      .   S
    N19    O20       3.59660      .   S
    Zr0    O20       4.71674      .   S
    N19    O21       3.62548  1_455   S
    Zr8    O21       4.73085      .   S
    N19    O22       3.30408  1_554   S
    Zr10   O22       4.41540      .   S
    N19    O23       3.54312  1_554   S
    Zr9    O23       4.63438      .   S
    N19    O24       3.17491  1_554   S
    Zr5    O24       3.78699      .   S
    N19    O25       3.32906  1_455   S
    Zr0    O25       4.41378      .   S
    N19    O26       3.34591      .   S
    Zr8    O26       4.43351      .   S
    N27    O28       3.29148      .   S
    Zr6    O28       4.04100  1_655   S
    N27    O29       3.59727      .   S
    Zr7    O29       4.68131      .   S
    N27    O30       3.28616      .   S
    Zr8    O30       3.97309      .   S
    N27    O31       3.51282  1_554   S
    Zr11   O31       4.59180      .   S
    N27    O32       3.19067  1_554   S
    Zr10   O32       4.12325      .   S
    N27    O33       3.18008      .   S
    Zr6    O33       4.15392      .   S
    N34    O35       3.19420      .   S
    Zr7    O35       4.11950      .   S
    N34    O36       3.28540      .   S
    Zr9    O36       4.03817  1_455   S
    N34    O37       3.18234      .   S
    Zr9    O37       4.16095      .   S
    N34    O38       3.50550      .   S
    Zr8    O38       4.58685      .   S
    N34    O39       3.59884      .   S
    Zr10   O39       4.68435      .   S
    N34    O40       3.28505      .   S
    Zr11   O40       3.97099      .   S
    N41    O42       3.18210  1_655   S
    Zr3    O42       4.16112      .   S
    N41    O43       3.50754      .   S
    Zr2    O43       4.58697      .   S
    N41    O44       3.20083      .   S
    Zr1    O44       4.13186      .   S
    N41    O45       3.28671      .   S
    Zr3    O45       4.03642      .   S
    N41    O46       3.59981  1_645   S
    Zr4    O46       4.68625      .   S
    N41    O47       3.28421  1_545   S
    Zr5    O47       3.96737  1_455   S
    N48    O49       3.32935  1_655   S
    Zr3    O49       4.41317      .   S
    N48    O50       3.34098      .   S
    Zr11   O50       4.42785      .   S
    N48    O51       3.62390  1_655   S
    Zr11   O51       4.72733      .   S
    N48    O52       3.54489      .   S
    Zr6    O52       4.63918      .   S
    N48    O53       3.17540      .   S
    Zr2    O53       3.78980      .   S
    N48    O54       3.30358      .   S
    Zr7    O54       4.41983      .   S
    N48    O55       3.59339      .   S
    Zr3    O55       4.71549      .   S
    N56    O57       3.33106      .   S
    Zr9    O57       4.41699      .   S
    N56    O58       3.30680      .   S
    Zr1    O58       4.41501  1_545   S
    N56    O59       3.62369      .   S
    Zr5    O59       4.72860      .   S
    N56    O60       3.34397      .   S
    Zr5    O60       4.43238  1_455   S
    N56    O61       3.59456      .   S
    Zr9    O61       4.71830  1_455   S
    N56    O62       3.54758      .   S
    Zr0    O62       4.64022      .   S
    N56    O63       3.17671      .   S
    Zr8    O63       3.78514      .   S
    N64    O65       3.34581      .   S
    Zr2    O65       4.43413  1_655   S
    N64    O66       3.53985  1_554   S
    Zr3    O66       4.63171      .   S
    N64    O67       3.17108  1_554   S
    Zr11   O67       3.78266      .   S
    N64    O68       3.30209  1_554   S
    Zr4    O68       4.41188  1_565   S
    N64    O69       3.33395      .   S
    Zr6    O69       4.42051      .   S
    N64    O70       3.59534      .   S
    Zr6    O70       4.71565  1_655   S
    N64    O71       3.62780      .   S
    Zr2    O71       4.73475      .   S
    Zr1    O72       4.39932      .   S
    N12    O72       3.37015  1_565   S
    Zr4    O73       4.39467  1_565   S
    N41    O73       3.36724      .   S
    Zr7    O74       4.39634  1_655   S
    N27    O74       3.36858      .   S
    Zr10   O75       4.39572  1_455   S
    N34    O75       3.36638      .   S
