# CIF file generated by openbabel 2.4.90, see http://openbabel.sf.net
data_I
_chemical_name_common 'VESTA_phase_1'
_cell_length_a 20.451
_cell_length_b 24.817
_cell_length_c 15.846
_cell_angle_alpha 89.76
_cell_angle_beta 89.797
_cell_angle_gamma 96.677
_space_group_name_H-M_alt 'P 1'
_space_group_name_Hall 'P 1'
loop_
    _symmetry_equiv_pos_as_xyz
    x,y,z
loop_
    _atom_site_label
    _atom_site_type_symbol
    _atom_site_fract_x
    _atom_site_fract_y
    _atom_site_fract_z
    _atom_site_occupancy
    Y0      Y    0.07942   0.22874   0.89539   1.000
    Y1      Y    0.07940   0.72864   0.89529   1.000
    Y2      Y    0.57943   0.22863   0.89538   1.000
    Y3      Y    0.57924   0.72916   0.89573   1.000
    Y4      Y    0.17072   0.02036   0.39273   1.000
    Y5      Y    0.17064   0.52044   0.39309   1.000
    Y6      Y    0.67047   0.02086   0.39313   1.000
    Y7      Y    0.67073   0.52035   0.39289   1.000
    Y8      Y    0.42062   0.27104   0.10356   1.000
    Y9      Y    0.42095   0.77083   0.10389   1.000
    Y10     Y    0.92096   0.27084   0.10382   1.000
    Y11     Y    0.92061   0.77100   0.10462   1.000
    Y12     Y    0.32951   0.47909   0.60582   1.000
    Y13     Y    0.32946   0.97920   0.60560   1.000
    Y14     Y    0.82941   0.47947   0.60701   1.000
    Y15     Y    0.82947   0.97911   0.60570   1.000
    H16     H    0.30235   0.20987   0.95560   1.000
    H17     H    0.30235   0.70978   0.95586   1.000
    H18     H    0.80240   0.20974   0.95586   1.000
    H19     H    0.80243   0.71051   0.95644   1.000
    H20     H    0.20954   0.09679   0.77511   1.000
    H21     H    0.20963   0.59676   0.77510   1.000
    H22     H    0.70963   0.09677   0.77515   1.000
    H23     H    0.70899   0.59685   0.77717   1.000
    H24     H    0.41881   0.10616   0.81512   1.000
    H25     H    0.41890   0.60623   0.81517   1.000
    H26     H    0.91890   0.10617   0.81513   1.000
    H27     H    0.91831   0.60605   0.81660   1.000
    H28     H    0.44781   0.03991   0.45560   1.000
    H29     H    0.44774   0.53909   0.45484   1.000
    H30     H    0.94773   0.03905   0.45465   1.000
    H31     H    0.94775   0.53941   0.45593   1.000
    H32     H    0.04103   0.15310   0.27352   1.000
    H33     H    0.04095   0.65302   0.27410   1.000
    H34     H    0.54095   0.15359   0.27383   1.000
    H35     H    0.54106   0.65311   0.27368   1.000
    H36     H    0.33139   0.14323   0.31397   1.000
    H37     H    0.33160   0.64327   0.31448   1.000
    H38     H    0.83160   0.14332   0.31445   1.000
    H39     H    0.83150   0.64315   0.31487   1.000
    H40     H    0.19787   0.29022   0.04230   1.000
    H41     H    0.19773   0.78926   0.04348   1.000
    H42     H    0.69770   0.28932   0.04346   1.000
    H43     H    0.69784   0.79005   0.04359   1.000
    H44     H    0.29110   0.40350   0.22225   1.000
    H45     H    0.29109   0.90304   0.22260   1.000
    H46     H    0.79108   0.40303   0.22270   1.000
    H47     H    0.79065   0.90331   0.22389   1.000
    H48     H    0.08171   0.39392   0.18322   1.000
    H49     H    0.08173   0.89365   0.18328   1.000
    H50     H    0.58175   0.39378   0.18321   1.000
    H51     H    0.58146   0.89411   0.18349   1.000
    H52     H    0.05217   0.46038   0.54405   1.000
    H53     H    0.05203   0.95996   0.54350   1.000
    H54     H    0.55211   0.46001   0.54370   1.000
    H55     H    0.55205   0.96017   0.54348   1.000
    H56     H    0.45918   0.34660   0.72601   1.000
    H57     H    0.45903   0.84657   0.72543   1.000
    H58     H    0.95902   0.34681   0.72590   1.000
    H59     H    0.95916   0.84659   0.72591   1.000
    H60     H    0.16849   0.35679   0.68529   1.000
    H61     H    0.16863   0.85677   0.68512   1.000
    H62     H    0.66868   0.35683   0.68541   1.000
    H63     H    0.66848   0.85653   0.68445   1.000
    C64     C    0.42812   0.18589   0.93280   1.000
    C65     C    0.42817   0.68594   0.93281   1.000
    C66     C    0.92820   0.18589   0.93281   1.000
    C67     C    0.92809   0.68619   0.93339   1.000
    C68     C    0.18598   0.17672   0.88443   1.000
    C69     C    0.18601   0.67668   0.88447   1.000
    C70     C    0.68604   0.17668   0.88447   1.000
    C71     C    0.68588   0.67732   0.88590   1.000
    C72     C    0.31894   0.05341   0.72556   1.000
    C73     C    0.31901   0.55336   0.72575   1.000
    C74     C    0.81900   0.05335   0.72568   1.000
    C75     C    0.81854   0.55322   0.72768   1.000
    C76     C    0.36735   0.16019   0.89104   1.000
    C77     C    0.36739   0.66021   0.89113   1.000
    C78     C    0.86742   0.16017   0.89110   1.000
    C79     C    0.86714   0.66045   0.89215   1.000
    C80     C    0.30629   0.17783   0.90975   1.000
    C81     C    0.30632   0.67780   0.90988   1.000
    C82     C    0.80635   0.17777   0.90987   1.000
    C83     C    0.80620   0.67828   0.91084   1.000
    C84     C    0.24967   0.15526   0.86749   1.000
    C85     C    0.24972   0.65523   0.86757   1.000
    C86     C    0.74974   0.15522   0.86750   1.000
    C87     C    0.74944   0.65561   0.86000   1.000
    C88     C    0.25362   0.11434   0.80789   1.000
    C89     C    0.25369   0.61432   0.80790   1.000
    C90     C    0.75370   0.11431   0.80794   1.000
    C91     C    0.75316   0.61443   0.80972   1.000
    C92     C    0.31457   0.09644   0.78966   1.000
    C93     C    0.31465   0.59644   0.78975   1.000
    C94     C    0.81465   0.09642   0.78972   1.000
    C95     C    0.81403   0.59639   0.79150   1.000
    C96     C    0.37144   0.11965   0.83059   1.000
    C97     C    0.37152   0.61968   0.83065   1.000
    C98     C    0.87153   0.11964   0.83062   1.000
    C99     C    0.87102   0.61967   0.83208   1.000
    C100    C    0.32199   0.06324   0.43260   1.000
    C101    C    0.32205   0.56307   0.43270   1.000
    C102    C    0.82205   0.06310   0.43265   1.000
    C103    C    0.82202   0.56321   0.43352   1.000
    C104    C    0.06425   0.07244   0.38275   1.000
    C105    C    0.06425   0.57266   0.38386   1.000
    C106    C    0.56436   0.07344   0.38402   1.000
    C107    C    0.56427   0.57246   0.38292   1.000
    C108    C    0.43137   0.19670   0.22422   1.000
    C109    C    0.43153   0.69653   0.22440   1.000
    C110    C    0.93150   0.19656   0.22440   1.000
    C111    C    0.93140   0.69637   0.22467   1.000
    C112    C    0.38279   0.08929   0.39040   1.000
    C113    C    0.38288   0.58898   0.39041   1.000
    C114    C    0.88287   0.08898   0.39030   1.000
    C115    C    0.88284   0.58907   0.39114   1.000
    C116    C    0.44391   0.07195   0.40935   1.000
    C117    C    0.44391   0.57132   0.40887   1.000
    C118    C    0.94390   0.07128   0.40869   1.000
    C119    C    0.94389   0.57151   0.40976   1.000
    C120    C    0.50066   0.09480   0.36685   1.000
    C121    C    0.50066   0.59411   0.36630   1.000
    C122    C    0.00000   0.09409   0.36613   1.000
    C123    C    0.00000   0.59423   0.36707   1.000
    C124    C    0.49678   0.13580   0.30684   1.000
    C125    C    0.49688   0.63535   0.30660   1.000
    C126    C    0.99686   0.13534   0.30651   1.000
    C127    C    0.99679   0.63531   0.30717   1.000
    C128    C    0.43577   0.15347   0.28850   1.000
    C129    C    0.43594   0.65325   0.28864   1.000
    C130    C    0.93592   0.15325   0.28855   1.000
    C131    C    0.93583   0.65316   0.28902   1.000
    C132    C    0.37877   0.12991   0.32961   1.000
    C133    C    0.37893   0.62976   0.32984   1.000
    C134    C    0.87892   0.12977   0.32975   1.000
    C135    C    0.87885   0.62970   0.33031   1.000
    C136    C    0.07203   0.31387   0.06631   1.000
    C137    C    0.07204   0.81340   0.06650   1.000
    C138    C    0.57199   0.31357   0.06650   1.000
    C139    C    0.57196   0.81404   0.06674   1.000
    C140    C    0.31440   0.32351   0.11264   1.000
    C141    C    0.31425   0.82258   0.11393   1.000
    C142    C    0.81424   0.32259   0.11394   1.000
    C143    C    0.81417   0.82316   0.11506   1.000
    C144    C    0.18148   0.44681   0.27219   1.000
    C145    C    0.18151   0.94663   0.27212   1.000
    C146    C    0.68151   0.44665   0.27216   1.000
    C147    C    0.68120   0.94700   0.27265   1.000
    C148    C    0.13299   0.33984   0.10723   1.000
    C149    C    0.13295   0.83925   0.10778   1.000
    C150    C    0.63294   0.33936   0.10772   1.000
    C151    C    0.63286   0.83984   0.10800   1.000
    C152    C    0.19402   0.32229   0.08814   1.000
    C153    C    0.19392   0.82149   0.08905   1.000
    C154    C    0.69390   0.32155   0.08900   1.000
    C155    C    0.69390   0.82214   0.08938   1.000
    C156    C    0.25077   0.34500   0.12996   1.000
    C157    C    0.25066   0.84422   0.13088   1.000
    C158    C    0.75065   0.34425   0.13090   1.000
    C159    C    0.75051   0.84474   0.13165   1.000
    C160    C    0.24695   0.38594   0.18963   1.000
    C161    C    0.24691   0.88542   0.19010   1.000
    C162    C    0.74691   0.38544   0.19015   1.000
    C163    C    0.74659   0.88579   0.19100   1.000
    C164    C    0.18603   0.40381   0.20810   1.000
    C165    C    0.18602   0.90342   0.20835   1.000
    C166    C    0.68602   0.40347   0.20836   1.000
    C167    C    0.68568   0.90382   0.20895   1.000
    C168    C    0.12905   0.38048   0.16753   1.000
    C169    C    0.12904   0.88006   0.16700   1.000
    C170    C    0.62905   0.38017   0.16770   1.000
    C171    C    0.62881   0.88056   0.16813   1.000
    C172    C    0.17793   0.43671   0.56664   1.000
    C173    C    0.17792   0.93662   0.56632   1.000
    C174    C    0.67800   0.43672   0.56660   1.000
    C175    C    0.67788   0.93661   0.56607   1.000
    C176    C    0.43569   0.42664   0.61576   1.000
    C177    C    0.43563   0.92676   0.61550   1.000
    C178    C    0.93569   0.42710   0.61609   1.000
    C179    C    0.93565   0.92664   0.61569   1.000
    C180    C    0.06861   0.30351   0.77546   1.000
    C181    C    0.06875   0.80345   0.77540   1.000
    C182    C    0.56876   0.30344   0.77551   1.000
    C183    C    0.56863   0.80338   0.77497   1.000
    C184    C    0.11712   0.41081   0.60897   1.000
    C185    C    0.11713   0.91063   0.60864   1.000
    C186    C    0.61721   0.41071   0.60892   1.000
    C187    C    0.61706   0.91058   0.60825   1.000
    C188    C    0.05605   0.42832   0.59028   1.000
    C189    C    0.05600   0.92799   0.58987   1.000
    C190    C    0.55608   0.42804   0.59008   1.000
    C191    C    0.55597   0.92806   0.58961   1.000
    C192    C    0.99933   0.40556   0.63295   1.000
    C193    C    0.99934   0.90523   0.63260   1.000
    C194    C    0.49939   0.40527   0.63281   1.000
    C195    C    0.49929   0.90527   0.63234   1.000
    C196    C    0.00318   0.36452   0.69292   1.000
    C197    C    0.00328   0.86430   0.69276   1.000
    C198    C    0.50332   0.36433   0.69290   1.000
    C199    C    0.50318   0.86426   0.69230   1.000
    C200    C    0.06416   0.34672   0.71111   1.000
    C201    C    0.06430   0.84660   0.71090   1.000
    C202    C    0.56433   0.34664   0.71115   1.000
    C203    C    0.56416   0.84646   0.71041   1.000
    C204    C    0.12113   0.37020   0.66983   1.000
    C205    C    0.12123   0.87010   0.66961   1.000
    C206    C    0.62129   0.37016   0.66986   1.000
    C207    C    0.62110   0.86993   0.66904   1.000
    O208    O    0.48389   0.17396   0.90743   1.000
    O209    O    0.48392   0.67404   0.90741   1.000
    O210    O    0.98396   0.17397   0.90740   1.000
    O211    O    0.98374   0.67419   0.90767   1.000
    O212    O    0.42257   0.21979   0.99227   1.000
    O213    O    0.42265   0.71988   0.99227   1.000
    O214    O    0.92267   0.21982   0.99220   1.000
    O215    O    0.92275   0.72014   0.99282   1.000
    O216    O    0.18313   0.21322   0.94103   1.000
    O217    O    0.18314   0.71320   0.94102   1.000
    O218    O    0.68317   0.21319   0.94103   1.000
    O219    O    0.68351   0.71493   0.94080   1.000
    O220    O    0.13446   0.16017   0.84107   1.000
    O221    O    0.13451   0.66010   0.84100   1.000
    O222    O    0.63454   0.16012   0.84107   1.000
    O223    O    0.63389   0.65983   0.84409   1.000
    O224    O    0.26652   0.03015   0.69098   1.000
    O225    O    0.26655   0.52997   0.69146   1.000
    O226    O    0.76655   0.03001   0.69133   1.000
    O227    O    0.76631   0.53014   0.69244   1.000
    O228    O    0.37546   0.03963   0.70426   1.000
    O229    O    0.37554   0.53965   0.70427   1.000
    O230    O    0.87552   0.03963   0.70423   1.000
    O231    O    0.87513   0.53926   0.70717   1.000
    O232    O    0.26614   0.07440   0.40675   1.000
    O233    O    0.26621   0.57432   0.40689   1.000
    O234    O    0.76621   0.07441   0.40692   1.000
    O235    O    0.76622   0.57420   0.40718   1.000
    O236    O    0.32766   0.02984   0.49304   1.000
    O237    O    0.32767   0.52971   0.49320   1.000
    O238    O    0.82768   0.02975   0.49316   1.000
    O239    O    0.82760   0.53023   0.49458   1.000
    O240    O    0.06644   0.03466   0.43784   1.000
    O241    O    0.06671   0.53538   0.43974   1.000
    O242    O    0.56692   0.03665   0.44064   1.000
    O243    O    0.56646   0.53471   0.43806   1.000
    O244    O    0.11637   0.09008   0.34059   1.000
    O245    O    0.11612   0.58989   0.34087   1.000
    O246    O    0.61613   0.09024   0.34056   1.000
    O247    O    0.61637   0.59005   0.34068   1.000
    O248    O    0.48369   0.21992   0.18867   1.000
    O249    O    0.48386   0.71978   0.18880   1.000
    O250    O    0.98384   0.21981   0.18883   1.000
    O251    O    0.98370   0.71964   0.18909   1.000
    O252    O    0.37481   0.21065   0.20371   1.000
    O253    O    0.37499   0.71055   0.20408   1.000
    O254    O    0.87497   0.21057   0.20400   1.000
    O255    O    0.87484   0.71033   0.20422   1.000
    O256    O    0.01639   0.32580   0.09214   1.000
    O257    O    0.01633   0.82516   0.09240   1.000
    O258    O    0.51633   0.32553   0.09220   1.000
    O259    O    0.51629   0.82598   0.09239   1.000
    O260    O    0.07731   0.27976   0.00706   1.000
    O261    O    0.07746   0.77956   0.00701   1.000
    O262    O    0.57733   0.27959   0.00710   1.000
    O263    O    0.57730   0.77999   0.00741   1.000
    O264    O    0.31710   0.28686   0.05630   1.000
    O265    O    0.31660   0.78496   0.05908   1.000
    O266    O    0.81658   0.28498   0.05907   1.000
    O267    O    0.81700   0.78652   0.05870   1.000
    O268    O    0.36606   0.34017   0.15575   1.000
    O269    O    0.36625   0.84011   0.15573   1.000
    O270    O    0.86624   0.34011   0.15573   1.000
    O271    O    0.86563   0.83973   0.15852   1.000
    O272    O    0.23370   0.46983   0.30755   1.000
    O273    O    0.23375   0.96970   0.30741   1.000
    O274    O    0.73374   0.46971   0.30748   1.000
    O275    O    0.73349   0.97005   0.30777   1.000
    O276    O    0.12488   0.46072   0.29281   1.000
    O277    O    0.12495   0.96065   0.29258   1.000
    O278    O    0.62494   0.46065   0.29265   1.000
    O279    O    0.62463   0.96099   0.29317   1.000
    O280    O    0.23373   0.42557   0.59276   1.000
    O281    O    0.23372   0.92562   0.59263   1.000
    O282    O    0.73384   0.42576   0.59285   1.000
    O283    O    0.73366   0.92567   0.59256   1.000
    O284    O    0.17237   0.46987   0.50582   1.000
    O285    O    0.17235   0.96968   0.50535   1.000
    O286    O    0.67236   0.46982   0.50570   1.000
    O287    O    0.67234   0.96967   0.50509   1.000
    O288    O    0.43312   0.46336   0.55904   1.000
    O289    O    0.43307   0.96355   0.55893   1.000
    O290    O    0.93320   0.46425   0.56000   1.000
    O291    O    0.93309   0.96338   0.55900   1.000
    O292    O    0.38393   0.40990   0.65927   1.000
    O293    O    0.38390   0.90999   0.65910   1.000
    O294    O    0.88385   0.40999   0.65920   1.000
    O295    O    0.88390   0.90990   0.65920   1.000
    O296    O    0.01631   0.28020   0.81102   1.000
    O297    O    0.01643   0.78018   0.81098   1.000
    O298    O    0.51644   0.28016   0.81105   1.000
    O299    O    0.51633   0.78031   0.81088   1.000
    O300    O    0.12518   0.28956   0.79590   1.000
    O301    O    0.12530   0.78952   0.79591   1.000
    O302    O    0.62531   0.28950   0.79600   1.000
    O303    O    0.62516   0.78940   0.79530   1.000
loop_
    _geom_bond_atom_site_label_1
    _geom_bond_atom_site_label_2
    _geom_bond_distance
    _geom_bond_site_symmetry_2
    _ccdc_geom_bond_type
    O261   C137      1.27815      .   S
    O261   Y1        2.18230  1_554   S
    O260   C136      1.27947      .   S
    O260   Y0        2.18343  1_554   S
    O262   C138      1.27916      .   S
    O262   Y2        2.18315  1_554   S
    O263   C139      1.27960      .   S
    O263   Y3        2.18041  1_554   S
    H40    C152      1.08919      .   S
    H42    C154      1.08886      .   S
    H41    C153      1.08923      .   S
    H43    C155      1.08920      .   S
    O264   Y8        2.32364      .   S
    O264   C140      1.28291      .   S
    O267   Y11       2.31656      .   S
    O267   C143      1.28314      .   S
    O266   Y10       2.31634      .   S
    O266   C142      1.28318      .   S
    O265   Y9        2.31606      .   S
    O265   C141      1.28309      .   S
    C136   O256      1.27509      .   S
    C136   C148      1.48753      .   S
    C137   O257      1.27543      .   S
    C137   C149      1.48803      .   S
    C138   O258      1.27522      .   S
    C138   C150      1.48777      .   S
    C139   O259      1.27493      .   S
    C139   C151      1.48739      .   S
    C152   C148      1.40132      .   S
    C152   C156      1.40010      .   S
    C154   C150      1.40157      .   S
    C154   C158      1.40050      .   S
    C153   C149      1.40136      .   S
    C153   C157      1.40010      .   S
    C155   C151      1.40150      .   S
    C155   C159      1.40035      .   S
    O256   Y10       2.25390  1_455   S
    O258   Y8        2.25217      .   S
    O259   Y9        2.25450      .   S
    O257   Y11       2.24931  1_455   S
    Y8     O268      2.30722      .   S
    Y8     O248      2.33884      .   S
    Y8     O252      2.29909      .   S
    Y8     O212      2.18154  1_554   S
    Y10    O270      2.31017      .   S
    Y10    O250      2.33429      .   S
    Y10    O254      2.29872      .   S
    Y10    O214      2.18202  1_554   S
    Y9     O269      2.30989      .   S
    Y9     O249      2.33401      .   S
    Y9     O253      2.29881      .   S
    Y9     O213      2.18108  1_554   S
    Y11    O271      2.31392      .   S
    Y11    O251      2.33700      .   S
    Y11    O255      2.29707      .   S
    Y11    O215      2.18289  1_554   S
    C148   C168      1.40106      .   S
    C150   C170      1.40045      .   S
    C149   C169      1.39254      .   S
    C151   C171      1.40103      .   S
    C140   C156      1.48773      .   S
    C140   O268      1.28816      .   S
    C141   C157      1.48760      .   S
    C141   O269      1.28789      .   S
    C142   C158      1.48778      .   S
    C142   O270      1.28785      .   S
    C143   C159      1.48718      .   S
    C143   O271      1.28771      .   S
    C156   C160      1.39928      .   S
    C157   C161      1.39914      .   S
    C158   C162      1.39923      .   S
    C159   C163      1.39821      .   S
    C169   H49       1.09143      .   S
    C169   C165      1.40517      .   S
    C168   H48       1.08853      .   S
    C168   C164      1.39912      .   S
    C170   H50       1.08874      .   S
    C170   C166      1.39957      .   S
    C171   H51       1.08852      .   S
    C171   C167      1.39883      .   S
    O248   C108      1.28219      .   S
    O249   C109      1.28287      .   S
    O250   C110      1.28282      .   S
    O251   C111      1.28248      .   S
    C160   C164      1.40074      .   S
    C160   H44       1.08902      .   S
    C161   C165      1.40073      .   S
    C161   H45       1.08897      .   S
    C162   C166      1.40074      .   S
    C162   H46       1.08904      .   S
    C163   C167      1.40037      .   S
    C163   H47       1.08926      .   S
    O252   C108      1.28767      .   S
    O254   C110      1.28733      .   S
    O253   C109      1.28705      .   S
    O255   C111      1.28768      .   S
    C164   C144      1.48673      .   S
    C165   C145      1.48686      .   S
    C166   C146      1.48680      .   S
    C167   C147      1.48573      .   S
    C108   C128      1.48677      .   S
    C109   C129      1.48745      .   S
    C110   C130      1.48674      .   S
    C111   C131      1.48728      .   S
    C145   O277      1.28693      .   S
    C145   O273      1.28313      .   S
    C146   O278      1.28696      .   S
    C146   O274      1.28314      .   S
    C144   O276      1.28707      .   S
    C144   O272      1.28298      .   S
    C147   O279      1.28700      .   S
    C147   O275      1.28264      .   S
    H32    C126      1.08899  1_455   S
    H35    C125      1.08856      .   S
    H34    C124      1.08907      .   S
    H33    C127      1.08904  1_455   S
    C128   C124      1.40087      .   S
    C128   C132      1.39933      .   S
    C130   C126      1.40083      .   S
    C130   C134      1.39926      .   S
    C129   C125      1.40065      .   S
    C129   C133      1.39938      .   S
    C131   C127      1.40097      .   S
    C131   C135      1.39940      .   S
    O277   Y4        2.30191  1_565   S
    O278   Y7        2.30257      .   S
    O276   Y5        2.30327      .   S
    O279   Y6        2.30249  1_565   S
    C126   C122      1.39714  1_655   S
    C125   C121      1.39963      .   S
    C124   C120      1.39894      .   S
    C127   C123      1.39735  1_655   S
    O273   Y4        2.33432  1_565   S
    O274   Y7        2.33451      .   S
    O272   Y5        2.33597      .   S
    O275   Y6        2.33674  1_565   S
    H36    C132      1.08862      .   S
    H38    C134      1.08858      .   S
    H37    C133      1.08860      .   S
    H39    C135      1.08860      .   S
    C132   C112      1.40092      .   S
    C134   C114      1.40125      .   S
    C133   C113      1.40122      .   S
    C135   C115      1.40146      .   S
    O246   C106      1.28795      .   S
    O246   Y6        2.30925      .   S
    O244   C104      1.28761      .   S
    O244   Y4        2.31375      .   S
    O247   C107      1.28767      .   S
    O247   Y7        2.31399      .   S
    O245   C105      1.28804      .   S
    O245   Y5        2.31075      .   S
    C122   C104      1.50006      .   S
    C122   C118      1.38994  1_455   S
    C121   C107      1.48801      .   S
    C121   C117      1.40030      .   S
    C120   C106      1.48793      .   S
    C120   C116      1.40011      .   S
    C123   C105      1.49957      .   S
    C123   C119      1.39037  1_455   S
    C104   O240      1.28303      .   S
    C107   O243      1.28305      .   S
    C105   O241      1.28331      .   S
    C106   O242      1.28293      .   S
    C114   C118      1.40155      .   S
    C114   C102      1.48818      .   S
    C112   C116      1.40156      .   S
    C112   C100      1.48818      .   S
    C113   C117      1.40158      .   S
    C113   C101      1.48821      .   S
    C115   C119      1.40144      .   S
    C115   C103      1.48828      .   S
    Y4     O232      2.24776      .   S
    Y4     O240      2.31354      .   S
    Y4     O285      2.18156  1_545   S
    Y7     O235      2.24733      .   S
    Y7     O243      2.31389      .   S
    Y7     O286      2.18172      .   S
    Y5     O233      2.24801      .   S
    Y5     O241      2.31852      .   S
    Y5     O284      2.18164      .   S
    Y6     O234      2.24682      .   S
    Y6     O242      2.32135      .   S
    Y6     O287      2.18080  1_545   S
    O232   C100      1.27484      .   S
    O233   C101      1.27500      .   S
    O234   C102      1.27505      .   S
    O235   C103      1.27494      .   S
    C118   H30       1.08922      .   S
    C117   H29       1.08915      .   S
    C116   H28       1.08911      .   S
    C119   H31       1.08919      .   S
    C100   O236      1.27847      .   S
    C102   O238      1.27818      .   S
    C101   O237      1.27824      .   S
    C103   O239      1.27863      .   S
    O236   Y13       2.18047  1_545   S
    O238   Y15       2.18025  1_545   S
    O237   Y12       2.18096      .   S
    O239   Y14       2.18062      .   S
    O287   C175      1.27874      .   S
    O285   C173      1.27888      .   S
    O286   C174      1.27889      .   S
    O284   C172      1.27858      .   S
    H55    C191      1.08914      .   S
    H53    C189      1.08917      .   S
    H54    C190      1.08924      .   S
    H52    C188      1.08922      .   S
    O289   Y13       2.31751      .   S
    O289   C177      1.28238      .   S
    O291   Y15       2.31822      .   S
    O291   C179      1.28287      .   S
    O288   Y12       2.31858      .   S
    O288   C176      1.28293      .   S
    O290   Y14       2.31950      .   S
    O290   C178      1.28343      .   S
    C175   O283      1.27498      .   S
    C175   C187      1.48827      .   S
    C173   O281      1.27491      .   S
    C173   C185      1.48833      .   S
    C174   O282      1.27502      .   S
    C174   C186      1.48856      .   S
    C172   O280      1.27491      .   S
    C172   C184      1.48818      .   S
    C191   C187      1.40133      .   S
    C191   C195      1.40025      .   S
    C189   C185      1.40134      .   S
    C189   C193      1.39983  1_455   S
    C190   C186      1.40143      .   S
    C190   C194      1.40024      .   S
    C188   C184      1.40142      .   S
    C188   C192      1.40014  1_455   S
    O283   Y15       2.24560      .   S
    O281   Y13       2.24575      .   S
    O280   Y12       2.24590      .   S
    O282   Y14       2.24664      .   S
    Y13    O293      2.31249      .   S
    Y13    O224      2.33806  1_565   S
    Y13    O228      2.29784  1_565   S
    Y15    O295      2.31216      .   S
    Y15    O226      2.33941  1_565   S
    Y15    O230      2.29817  1_565   S
    Y12    O292      2.31177      .   S
    Y12    O225      2.33959      .   S
    Y12    O229      2.29771      .   S
    Y14    O294      2.31027      .   S
    Y14    O227      2.33644      .   S
    Y14    O231      2.30272      .   S
    C187   C207      1.40154      .   S
    C185   C205      1.40162      .   S
    C186   C206      1.40153      .   S
    C184   C204      1.40147      .   S
    C177   C195      1.48765      .   S
    C177   O293      1.28823      .   S
    C179   C193      1.48751      .   S
    C179   O295      1.28770      .   S
    C176   C194      1.48775      .   S
    C176   O292      1.28785      .   S
    C178   C192      1.48799      .   S
    C178   O294      1.28793      .   S
    C195   C199      1.39876      .   S
    C193   C197      1.39948  1_655   S
    C194   C198      1.39883      .   S
    C192   C196      1.39913  1_655   S
    C207   H63       1.08859      .   S
    C207   C203      1.39949      .   S
    C205   H61       1.08866      .   S
    C205   C201      1.39902      .   S
    C204   H60       1.08857      .   S
    C204   C200      1.39946      .   S
    C206   H62       1.08862      .   S
    C206   C202      1.39954      .   S
    O224   C72       1.28270      .   S
    O226   C74       1.28252      .   S
    O225   C73       1.28250      .   S
    C199   C203      1.40077      .   S
    C199   H57       1.08903      .   S
    O227   C75       1.28278      .   S
    C197   C201      1.40065      .   S
    C197   H59       1.08901  1_455   S
    C198   C202      1.40084      .   S
    C198   H56       1.08903      .   S
    C196   C200      1.40099      .   S
    C196   H58       1.08837  1_455   S
    O230   C74       1.28739      .   S
    O228   C72       1.28736      .   S
    O229   C73       1.28742      .   S
    O231   C75       1.28717      .   S
    C203   C183      1.48723      .   S
    C201   C181      1.48790      .   S
    C200   C180      1.48739      .   S
    C202   C182      1.48710      .   S
    C72    C92       1.48682      .   S
    C74    C94       1.48675      .   S
    C73    C93       1.48664      .   S
    C75    C95       1.48663      .   S
    C183   O303      1.28683      .   S
    C183   O299      1.28304      .   S
    H21    C89       1.08909      .   S
    H20    C88       1.08904      .   S
    H22    C90       1.08898      .   S
    C181   O301      1.28733      .   S
    C181   O297      1.28273      .   S
    C180   O300      1.28753      .   S
    C180   O296      1.28260      .   S
    C182   O302      1.28734      .   S
    C182   O298      1.28270      .   S
    H23    C91       1.08903      .   S
    C92    C88       1.40063      .   S
    C92    C96       1.39932      .   S
    C94    C90       1.40058      .   S
    C94    C98       1.39916      .   S
    C93    C89       1.40042      .   S
    C93    C97       1.39920      .   S
    C95    C91       1.40070      .   S
    C95    C99       1.39903      .   S
    O303   Y3        2.30058      .   S
    O300   Y0        2.29796      .   S
    O301   Y1        2.29866      .   S
    O302   Y2        2.29827      .   S
    C88    C84       1.39868      .   S
    C89    C85       1.39933      .   S
    C90    C86       1.39804      .   S
    C91    C87       1.30744      .   S
    O299   Y3        2.33497      .   S
    O297   Y1        2.33679      .   S
    O296   Y0        2.33778      .   S
    O298   Y2        2.33705      .   S
    H24    C96       1.08859      .   S
    H26    C98       1.08856      .   S
    H25    C97       1.08859      .   S
    H27    C99       1.08852      .   S
    C96    C76       1.40148      .   S
    C98    C78       1.40155      .   S
    C97    C77       1.40159      .   S
    C99    C79       1.40088      .   S
    O221   C69       1.28838      .   S
    O221   Y1        2.31385      .   S
    O222   C70       1.28765      .   S
    O222   Y2        2.31367      .   S
    O220   C68       1.28758      .   S
    O220   Y0        2.31392      .   S
    O223   C71       1.28762      .   S
    O223   Y3        2.30907      .   S
    C87    C71       1.51965      .   S
    C87    C83       1.47361      .   S
    C84    C68       1.48755      .   S
    C84    C80       1.40024      .   S
    C86    C70       1.48774      .   S
    C86    C82       1.40074      .   S
    C85    C69       1.48751      .   S
    C85    C81       1.40030      .   S
    C68    O216      1.28327      .   S
    C70    O218      1.28317      .   S
    C69    O217      1.28315      .   S
    C71    O219      1.28339      .   S
    C76    C80       1.40152      .   S
    C76    C64       1.48804      .   S
    C78    C82       1.40154      .   S
    C78    C66       1.48795      .   S
    C77    C81       1.40147      .   S
    C77    C65       1.48790      .   S
    C79    C83       1.40139      .   S
    C79    C67       1.48747      .   S
    Y1     O211      2.25203  1_455   S
    Y1     O217      2.31742      .   S
    Y2     O208      2.25250      .   S
    Y2     O218      2.31697      .   S
    Y0     O210      2.25238  1_455   S
    Y0     O216      2.31702      .   S
    Y3     O209      2.25390      .   S
    Y3     O219      2.31657      .   S
    O210   C66       1.27539      .   S
    O209   C65       1.27493      .   S
    O208   C64       1.27524      .   S
    O211   C67       1.27542      .   S
    C80    H16       1.08892      .   S
    C82    H18       1.08925      .   S
    C81    H17       1.08922      .   S
    C83    H19       1.08927      .   S
    C64    O212      1.27940      .   S
    C66    O214      1.27900      .   S
    C65    O213      1.27975      .   S
    C67    O215      1.27904      .   S
