# CIF file generated by openbabel 2.4.90, see http://openbabel.sf.net
data_I
_chemical_name_common ''
_cell_length_a 13.716
_cell_length_b 14.213
_cell_length_c 15.984
_cell_angle_alpha 90
_cell_angle_beta 90.002
_cell_angle_gamma 90.003
_space_group_name_H-M_alt 'P 1'
_space_group_name_Hall 'P 1'
loop_
    _symmetry_equiv_pos_as_xyz
    x,y,z
loop_
    _atom_site_label
    _atom_site_type_symbol
    _atom_site_fract_x
    _atom_site_fract_y
    _atom_site_fract_z
    _atom_site_occupancy
    V0      V    0.96908   0.76398   0.99910   1.000
    V1      V    0.28089   0.23605   0.49910   1.000
    V2      V    0.78090   0.23605   0.49910   1.000
    V3      V    0.03075   0.26363   0.49869   1.000
    V4      V    0.53075   0.26363   0.49869   1.000
    V5      V    0.21922   0.73640   0.99869   1.000
    V6      V    0.71923   0.73641   0.99869   1.000
    V7      V    0.46908   0.76398   0.99910   1.000
    C8      C    0.11325   0.86898   0.88639   1.000
    C9      C    0.61326   0.86898   0.88639   1.000
    C10     C    0.13628   0.13757   0.61630   1.000
    C11     C    0.63629   0.13757   0.61638   1.000
    C12     C    0.13668   0.13106   0.38637   1.000
    C13     C    0.63669   0.13106   0.38637   1.000
    C14     C    0.11370   0.86246   0.11637   1.000
    C15     C    0.61371   0.86247   0.11637   1.000
    C16     C    0.38643   0.36856   0.61160   1.000
    C17     C    0.88644   0.36856   0.61169   1.000
    C18     C    0.36322   0.63737   0.88171   1.000
    C19     C    0.86323   0.63737   0.88171   1.000
    C20     C    0.36354   0.63147   0.11168   1.000
    C21     C    0.86355   0.63147   0.11160   1.000
    C22     C    0.38673   0.36266   0.38171   1.000
    C23     C    0.88674   0.36266   0.38171   1.000
    O24     O    0.35833   0.80607   0.00013   1.000
    O25     O    0.85834   0.80607   0.00013   1.000
    O26     O    0.02850   0.84753   0.91339   1.000
    O27     O    0.52851   0.84753   0.91339   1.000
    O28     O    0.22073   0.15649   0.58723   1.000
    O29     O    0.72074   0.15649   0.58723   1.000
    O30     O    0.19371   0.83490   0.91336   1.000
    O31     O    0.69372   0.83489   0.91336   1.000
    O32     O    0.05586   0.17252   0.59013   1.000
    O33     O    0.55587   0.17252   0.59010   1.000
    O34     O    0.39165   0.19395   0.50014   1.000
    O35     O    0.89166   0.19395   0.50010   1.000
    O36     O    0.22144   0.15250   0.41338   1.000
    O37     O    0.72145   0.15250   0.41338   1.000
    O38     O    0.02925   0.84354   0.08722   1.000
    O39     O    0.52926   0.84354   0.08722   1.000
    O40     O    0.05622   0.16514   0.41334   1.000
    O41     O    0.55623   0.16514   0.41334   1.000
    O42     O    0.19411   0.82751   0.09013   1.000
    O43     O    0.69412   0.82751   0.09013   1.000
    O44     O    0.14168   0.30516   0.49722   1.000
    O45     O    0.64169   0.30516   0.49720   1.000
    O46     O    0.47097   0.34885   0.58313   1.000
    O47     O    0.97098   0.34884   0.58313   1.000
    O48     O    0.27856   0.65816   0.90931   1.000
    O49     O    0.77857   0.65815   0.90931   1.000
    O50     O    0.30608   0.33292   0.58605   1.000
    O51     O    0.80609   0.33292   0.58605   1.000
    O52     O    0.44367   0.67084   0.90930   1.000
    O53     O    0.94368   0.67084   0.90930   1.000
    O54     O    0.10829   0.69487   0.99723   1.000
    O55     O    0.60830   0.69487   0.99723   1.000
    O56     O    0.27901   0.65119   0.08312   1.000
    O57     O    0.77902   0.65119   0.08312   1.000
    O58     O    0.47139   0.34187   0.40930   1.000
    O59     O    0.97140   0.34187   0.40930   1.000
    O60     O    0.44389   0.66710   0.08604   1.000
    O61     O    0.94390   0.66710   0.08600   1.000
    O62     O    0.30627   0.32919   0.40930   1.000
    O63     O    0.80628   0.32919   0.40930   1.000
loop_
    _geom_bond_atom_site_label_1
    _geom_bond_atom_site_label_2
    _geom_bond_distance
    _geom_bond_site_symmetry_2
    _ccdc_geom_bond_type
    O25    V6        2.14966  1_554   S
    O25    V0        1.63272  1_554   S
    O24    V5        2.14966  1_554   S
    O24    V7        1.63272  1_554   S
    O56    C20       1.27723      .   S
    O56    V5        1.99016  1_554   S
    O57    C21       1.27677      .   S
    O57    V6        1.99016  1_554   S
    O61    C21       1.28003      .   S
    O61    V0        1.98604  1_554   S
    O60    C20       1.28024      .   S
    O60    V7        1.98649  1_554   S
    O38    C14       1.27712      .   S
    O38    V0        1.98584  1_454   S
    O39    C15       1.27713      .   S
    O39    V7        1.98594  1_554   S
    O43    C15       1.28040      .   S
    O43    V6        1.98281  1_554   S
    O42    C14       1.28038      .   S
    O42    V5        1.98280  1_554   S
    C23    O63       1.28007      .   S
    C23    O59       1.27679      .   S
    C22    O62       1.28006      .   S
    C22    O58       1.27678      .   S
    C12    O40       1.28004      .   S
    C12    O36       1.27699      .   S
    C13    O41       1.28002      .   S
    C13    O37       1.27700      .   S
    O63    V2        1.98347      .   S
    O62    V1        1.98344      .   S
    O59    V3        1.98517  1_655   S
    O58    V4        1.98527      .   S
    O40    V3        1.98561      .   S
    O41    V4        1.98562      .   S
    O36    V1        1.98802      .   S
    O37    V2        1.98799      .   S
    O45    V4        1.63223      .   S
    O45    V2        2.14755      .   S
    O44    V3        1.63222      .   S
    O44    V1        2.14754      .   S
    V4     O34       2.14977      .   S
    V4     O46       1.99030      .   S
    V4     O33       1.98252      .   S
    V3     O35       2.14955  1_455   S
    V3     O47       1.99020  1_455   S
    V3     O32       1.98288      .   S
    V2     O35       1.63278      .   S
    V2     O51       1.98657      .   S
    V2     O29       1.98593      .   S
    V1     O34       1.63278      .   S
    V1     O50       1.98657      .   S
    V1     O28       1.98593      .   S
    O46    C16       1.27682      .   S
    O47    C17       1.27733      .   S
    O50    C16       1.27980      .   S
    O51    C17       1.28026      .   S
    O29    C11       1.27715      .   S
    O28    C10       1.27666      .   S
    O33    C11       1.28057      .   S
    O32    C10       1.27998      .   S
    C18    O52       1.28000      .   S
    C18    O48       1.27684      .   S
    C19    O53       1.28001      .   S
    C19    O49       1.27684      .   S
    C8     O30       1.28001      .   S
    C8     O26       1.27698      .   S
    C9     O31       1.28001      .   S
    C9     O27       1.27695      .   S
    O52    V7        1.98337      .   S
    O53    V0        1.98338      .   S
    O48    V5        1.98508      .   S
    O49    V6        1.98510      .   S
    O30    V5        1.98553      .   S
    O31    V6        1.98549      .   S
    O26    V0        1.98775  1_455   S
    O27    V7        1.98786      .   S
    O55    V6        1.63216      .   S
    O55    V7        2.14764      .   S
    O54    V5        1.63216      .   S
    O54    V0        2.14743  1_455   S
