# CIF file generated by openbabel 2.4.90, see http://openbabel.sf.net
data_I
_chemical_name_common ''
_cell_length_a 13.716
_cell_length_b 14.213
_cell_length_c 15.984
_cell_angle_alpha 90
_cell_angle_beta 90.002
_cell_angle_gamma 90.003
_space_group_name_H-M_alt 'P 1'
_space_group_name_Hall 'P 1'
loop_
    _symmetry_equiv_pos_as_xyz
    x,y,z
loop_
    _atom_site_label
    _atom_site_type_symbol
    _atom_site_fract_x
    _atom_site_fract_y
    _atom_site_fract_z
    _atom_site_occupancy
    C0      C    0.11325   0.86898   0.88639   1.000
    C1      C    0.61326   0.86898   0.88639   1.000
    C2      C    0.13628   0.13757   0.61630   1.000
    C3      C    0.63629   0.13757   0.61638   1.000
    C4      C    0.13668   0.13106   0.38637   1.000
    C5      C    0.63669   0.13106   0.38637   1.000
    C6      C    0.11370   0.86246   0.11637   1.000
    C7      C    0.61371   0.86247   0.11637   1.000
    C8      C    0.38643   0.36856   0.61160   1.000
    C9      C    0.88644   0.36856   0.61169   1.000
    C10     C    0.36322   0.63737   0.88171   1.000
    C11     C    0.86323   0.63737   0.88171   1.000
    C12     C    0.36354   0.63147   0.11168   1.000
    C13     C    0.86355   0.63147   0.11160   1.000
    C14     C    0.38673   0.36266   0.38171   1.000
    C15     C    0.88674   0.36266   0.38171   1.000
    O16     O    0.35833   0.80607   0.00013   1.000
    O17     O    0.85834   0.80607   0.00013   1.000
    O18     O    0.02850   0.84753   0.91339   1.000
    O19     O    0.52851   0.84753   0.91339   1.000
    O20     O    0.22073   0.15649   0.58723   1.000
    O21     O    0.72074   0.15649   0.58723   1.000
    O22     O    0.19371   0.83490   0.91336   1.000
    O23     O    0.69372   0.83489   0.91336   1.000
    O24     O    0.05586   0.17252   0.59013   1.000
    O25     O    0.55587   0.17252   0.59010   1.000
    O26     O    0.39165   0.19395   0.50014   1.000
    O27     O    0.89166   0.19395   0.50010   1.000
    O28     O    0.22144   0.15250   0.41338   1.000
    O29     O    0.72145   0.15250   0.41338   1.000
    O30     O    0.02925   0.84354   0.08722   1.000
    O31     O    0.52926   0.84354   0.08722   1.000
    O32     O    0.05622   0.16514   0.41334   1.000
    O33     O    0.55623   0.16514   0.41334   1.000
    O34     O    0.19411   0.82751   0.09013   1.000
    O35     O    0.69412   0.82751   0.09013   1.000
    O36     O    0.14168   0.30516   0.49722   1.000
    O37     O    0.64169   0.30516   0.49720   1.000
    O38     O    0.47097   0.34885   0.58313   1.000
    O39     O    0.97098   0.34884   0.58313   1.000
    O40     O    0.27856   0.65816   0.90931   1.000
    O41     O    0.77857   0.65815   0.90931   1.000
    O42     O    0.30608   0.33292   0.58605   1.000
    O43     O    0.80609   0.33292   0.58605   1.000
    O44     O    0.44367   0.67084   0.90930   1.000
    O45     O    0.94368   0.67084   0.90930   1.000
    O46     O    0.10829   0.69487   0.99723   1.000
    O47     O    0.60830   0.69487   0.99723   1.000
    O48     O    0.27901   0.65119   0.08312   1.000
    O49     O    0.77902   0.65119   0.08312   1.000
    O50     O    0.47139   0.34187   0.40930   1.000
    O51     O    0.97140   0.34187   0.40930   1.000
    O52     O    0.44389   0.66710   0.08604   1.000
    O53     O    0.94390   0.66710   0.08600   1.000
    O54     O    0.30627   0.32919   0.40930   1.000
    O55     O    0.80628   0.32919   0.40930   1.000
loop_
    _geom_bond_atom_site_label_1
    _geom_bond_atom_site_label_2
    _geom_bond_distance
    _geom_bond_site_symmetry_2
    _ccdc_geom_bond_type
    O48    C12       1.27723      .   S
    O49    C13       1.27677      .   S
    O53    C13       1.28003      .   S
    O52    C12       1.28024      .   S
    O30    C6        1.27712      .   S
    O31    C7        1.27713      .   S
    O35    C7        1.28040      .   S
    O34    C6        1.28038      .   S
    C15    O55       1.28007      .   S
    C15    O51       1.27679      .   S
    C14    O54       1.28006      .   S
    C14    O50       1.27678      .   S
    C4     O32       1.28004      .   S
    C4     O28       1.27699      .   S
    C5     O33       1.28002      .   S
    C5     O29       1.27700      .   S
    O38    C8        1.27682      .   S
    O39    C9        1.27733      .   S
    O42    C8        1.27980      .   S
    O43    C9        1.28026      .   S
    O21    C3        1.27715      .   S
    O20    C2        1.27666      .   S
    O25    C3        1.28057      .   S
    O24    C2        1.27998      .   S
    C10    O44       1.28000      .   S
    C10    O40       1.27684      .   S
    C11    O45       1.28001      .   S
    C11    O41       1.27684      .   S
    C0     O22       1.28001      .   S
    C0     O18       1.27698      .   S
    C1     O23       1.28001      .   S
    C1     O19       1.27695      .   S
