# CIF file generated by openbabel 2.4.90, see http://openbabel.sf.net
data_I
_chemical_name_common ''
_cell_length_a 13.716
_cell_length_b 14.213
_cell_length_c 15.984
_cell_angle_alpha 90
_cell_angle_beta 90.002
_cell_angle_gamma 90.003
_space_group_name_H-M_alt 'P 1'
_space_group_name_Hall 'P 1'
loop_
    _symmetry_equiv_pos_as_xyz
    x,y,z
loop_
    _atom_site_label
    _atom_site_type_symbol
    _atom_site_fract_x
    _atom_site_fract_y
    _atom_site_fract_z
    _atom_site_occupancy
    C0      C    0.11325   0.86898   0.88639   1.000
    C1      C    0.61326   0.86898   0.88639   1.000
    C2      C    0.13628   0.13757   0.61630   1.000
    C3      C    0.63629   0.13757   0.61638   1.000
    C4      C    0.13668   0.13106   0.38637   1.000
    C5      C    0.63669   0.13106   0.38637   1.000
    C6      C    0.11370   0.86246   0.11637   1.000
    C7      C    0.61371   0.86247   0.11637   1.000
    C8      C    0.38643   0.36856   0.61160   1.000
    C9      C    0.88644   0.36856   0.61169   1.000
    C10     C    0.36322   0.63737   0.88171   1.000
    C11     C    0.86323   0.63737   0.88171   1.000
    C12     C    0.36354   0.63147   0.11168   1.000
    C13     C    0.86355   0.63147   0.11160   1.000
    C14     C    0.38673   0.36266   0.38171   1.000
    C15     C    0.88674   0.36266   0.38171   1.000
