# CIF file generated by openbabel 2.4.90, see http://openbabel.sf.net
data_I
_chemical_name_common ''
_cell_length_a 13.716
_cell_length_b 14.213
_cell_length_c 15.984
_cell_angle_alpha 90
_cell_angle_beta 90.002
_cell_angle_gamma 90.003
_space_group_name_H-M_alt 'P 1'
_space_group_name_Hall 'P 1'
loop_
    _symmetry_equiv_pos_as_xyz
    x,y,z
loop_
    _atom_site_label
    _atom_site_type_symbol
    _atom_site_fract_x
    _atom_site_fract_y
    _atom_site_fract_z
    _atom_site_occupancy
    Zr0     Zr   0.46908   0.76398   0.99910   1.000
    Zr1     Zr   0.96908   0.76398   0.99910   1.000
    Zr2     Zr   0.28089   0.23605   0.49910   1.000
    Zr3     Zr   0.78090   0.23605   0.49910   1.000
    Zr4     Zr   0.03075   0.26363   0.49869   1.000
    Zr5     Zr   0.53075   0.26363   0.49869   1.000
    Zr6     Zr   0.21922   0.73640   0.99869   1.000
    Zr7     Zr   0.71923   0.73641   0.99869   1.000
    Zr8     Zr   0.35833   0.80607   0.00013   1.000
    Zr9     Zr   0.85834   0.80607   0.00013   1.000
    Zr10    Zr   0.39165   0.19395   0.50014   1.000
    Zr11    Zr   0.89166   0.19395   0.50010   1.000
    Zr12    Zr   0.14168   0.30516   0.49722   1.000
    Zr13    Zr   0.64169   0.30516   0.49720   1.000
    Zr14    Zr   0.10829   0.69487   0.99723   1.000
    Zr15    Zr   0.60830   0.69487   0.99723   1.000
    O16     O    0.78878   0.77124   0.99941   1.000
    O17     O    0.91371   0.78502   0.99962   1.000
    O18     O    0.28877   0.77124   0.99941   1.000
    O19     O    0.41370   0.78502   0.99962   1.000
    O20     O    0.58622   0.28439   0.49795   1.000
    O21     O    0.71130   0.27060   0.49815   1.000
    O22     O    0.08621   0.28439   0.49796   1.000
    O23     O    0.21129   0.27060   0.49816   1.000
    O24     O    0.46120   0.22879   0.49942   1.000
    O25     O    0.96120   0.22879   0.49940   1.000
    O26     O    0.83628   0.21500   0.49960   1.000
    O27     O    0.33627   0.21500   0.49962   1.000
    O28     O    0.66376   0.71564   0.99796   1.000
    O29     O    0.53869   0.72942   0.99817   1.000
    O30     O    0.16376   0.71564   0.99796   1.000
    O31     O    0.03869   0.72942   0.99817   1.000
    N32     N    0.12506   0.99582   0.25211   1.000
    N33     N    0.37480   0.50358   0.74618   1.000
    N34     N    0.12491   0.00423   0.75213   1.000
    N35     N    0.62491   0.00422   0.75204   1.000
    N36     N    0.62506   0.99583   0.25209   1.000
    N37     N    0.37516   0.49646   0.24624   1.000
    N38     N    0.87481   0.50357   0.74624   1.000
    N39     N    0.87516   0.49647   0.24625   1.000
    C40     C    0.13811   0.14957   0.40436   1.000
    O41     O    0.13374   0.09774   0.35319   1.000
    O42     O    0.19464   0.17192   0.43030   1.000
    O43     O    0.09080   0.18197   0.43019   1.000
    C44     C    0.13763   0.15552   0.59789   1.000
    O45     O    0.13339   0.10466   0.64984   1.000
    O46     O    0.19422   0.17590   0.57053   1.000
    O47     O    0.09047   0.18680   0.57115   1.000
    C48     C    0.63812   0.14957   0.40436   1.000
    O49     O    0.63375   0.09775   0.35318   1.000
    O50     O    0.69465   0.17192   0.43030   1.000
    O51     O    0.59081   0.18198   0.43019   1.000
    C52     C    0.88784   0.35011   0.59362   1.000
    O53     O    0.88349   0.40182   0.64493   1.000
    O54     O    0.84067   0.31729   0.56810   1.000
    O55     O    0.94435   0.32817   0.56727   1.000
    C56     C    0.63763   0.15552   0.59790   1.000
    O57     O    0.69423   0.17589   0.57053   1.000
    O58     O    0.63340   0.10466   0.64984   1.000
    O59     O    0.59047   0.18680   0.57115   1.000
    C60     C    0.88814   0.34458   0.40010   1.000
    O61     O    0.94461   0.32366   0.42705   1.000
    O62     O    0.84087   0.31360   0.42715   1.000
    O63     O    0.88381   0.39566   0.34829   1.000
    C64     C    0.38783   0.35011   0.59359   1.000
    O65     O    0.44435   0.32817   0.56725   1.000
    O66     O    0.38348   0.40182   0.64489   1.000
    O67     O    0.34066   0.31729   0.56808   1.000
    C68     C    0.38813   0.34457   0.40010   1.000
    O69     O    0.34086   0.31360   0.42715   1.000
    O70     O    0.44460   0.32366   0.42705   1.000
    O71     O    0.38380   0.39566   0.34829   1.000
    C72     C    0.36182   0.65546   0.90011   1.000
    O73     O    0.36615   0.60438   0.84828   1.000
    O74     O    0.30535   0.67637   0.92705   1.000
    O75     O    0.40910   0.68643   0.92715   1.000
    C76     C    0.86216   0.64992   0.09357   1.000
    O77     O    0.86650   0.59821   0.14490   1.000
    O78     O    0.80564   0.67186   0.06724   1.000
    O79     O    0.90933   0.68273   0.06806   1.000
    C80     C    0.36215   0.64992   0.09361   1.000
    O81     O    0.36649   0.59821   0.14493   1.000
    O82     O    0.40932   0.68273   0.06809   1.000
    O83     O    0.30563   0.67186   0.06726   1.000
    C84     C    0.11235   0.84450   0.09791   1.000
    O85     O    0.11659   0.89537   0.14985   1.000
    O86     O    0.05576   0.82413   0.07053   1.000
    O87     O    0.15951   0.81323   0.07116   1.000
    C88     C    0.86183   0.65546   0.90011   1.000
    O89     O    0.80536   0.67637   0.92705   1.000
    O90     O    0.90910   0.68643   0.92715   1.000
    O91     O    0.86616   0.60437   0.84829   1.000
    C92     C    0.11182   0.85047   0.90438   1.000
    O93     O    0.15914   0.81806   0.93020   1.000
    O94     O    0.11620   0.90230   0.85321   1.000
    O95     O    0.05531   0.82811   0.93031   1.000
    C96     C    0.61183   0.85047   0.90438   1.000
    O97     O    0.61621   0.90229   0.85312   1.000
    O98     O    0.55531   0.82811   0.93031   1.000
    O99     O    0.65915   0.81806   0.93020   1.000
    C100    C    0.61236   0.84451   0.09791   1.000
    O101    O    0.55576   0.82413   0.07053   1.000
    O102    O    0.61659   0.89538   0.14983   1.000
    O103    O    0.65952   0.81323   0.07116   1.000
loop_
    _geom_bond_atom_site_label_1
    _geom_bond_atom_site_label_2
    _geom_bond_distance
    _geom_bond_site_symmetry_2
    _ccdc_geom_bond_type
    Zr9    O16       1.07483  1_554   S
    Zr7    O16       1.07483      .   S
    Zr9    O17       0.81636  1_554   S
    Zr1    O17       0.81636      .   S
    Zr8    O18       1.07483  1_554   S
    Zr6    O18       1.07483      .   S
    Zr8    O19       0.81636  1_554   S
    Zr0    O19       0.81636      .   S
    Zr13   O20       0.81611      .   S
    Zr5    O20       0.81611      .   S
    Zr13   O21       1.07378      .   S
    Zr3    O21       1.07378      .   S
    Zr12   O22       0.81611      .   S
    Zr4    O22       0.81611      .   S
    Zr12   O23       1.07377      .   S
    Zr2    O23       1.07377      .   S
    Zr5    O24       1.07489      .   S
    Zr10   O24       1.07489      .   S
    Zr4    O25       1.07478  1_455   S
    Zr11   O25       1.07478      .   S
    Zr3    O26       0.81639      .   S
    Zr11   O26       0.81639      .   S
    Zr2    O27       0.81639      .   S
    Zr10   O27       0.81639      .   S
    Zr15   O28       0.81608      .   S
    Zr7    O28       0.81608      .   S
    Zr15   O29       1.07382      .   S
    Zr0    O29       1.07382      .   S
    Zr14   O30       0.81608      .   S
    Zr6    O30       0.81608      .   S
    Zr14   O31       1.07372      .   S
    Zr1    O31       1.07372  1_655   S
    C40    O41       1.10234      .   S
    N32    O41       2.17322  1_565   S
    C40    O42       0.93483      .   S
    Zr2    O42       1.85457      .   S
    C40    O43       0.89655      .   S
    Zr4    O43       1.79561      .   S
    C44    O45       1.10253      .   S
    N34    O45       2.17362      .   S
    C44    O46       0.93682      .   S
    Zr2    O46       1.85677      .   S
    C44    O47       0.89368      .   S
    Zr4    O47       1.79017      .   S
    C48    O49       1.10240      .   S
    N36    O49       2.17338  1_565   S
    C48    O50       0.93483      .   S
    Zr3    O50       1.85455      .   S
    C48    O51       0.89654      .   S
    Zr5    O51       1.79561      .   S
    C52    O53       1.10292      .   S
    N38    O53       2.17435      .   S
    C52    O54       0.89582      .   S
    Zr3    O54       1.79489      .   S
    C52    O55       0.93572      .   S
    Zr4    O55       1.85676  1_455   S
    C56    O57       0.93688      .   S
    Zr3    O57       1.85686      .   S
    C56    O58       1.10230      .   S
    N35    O58       2.17265      .   S
    C56    O59       0.89380      .   S
    Zr5    O59       1.79019      .   S
    C60    O61       0.93472      .   S
    Zr4    O61       1.85347  1_455   S
    C60    O62       0.89510      .   S
    Zr3    O62       1.79274      .   S
    C60    O63       1.10298      .   S
    N39    O63       2.17426      .   S
    C64    O65       0.93566      .   S
    Zr5    O65       1.85673      .   S
    C64    O66       1.10279      .   S
    N33    O66       2.17416      .   S
    C64    O67       0.89571      .   S
    Zr2    O67       1.79475      .   S
    C68    O69       0.89509      .   S
    Zr2    O69       1.79272      .   S
    C68    O70       0.93477      .   S
    Zr5    O70       1.85357      .   S
    C68    O71       1.10297      .   S
    N37    O71       2.17426      .   S
    C72    O73       1.10316      .   S
    N33    O73       2.17479      .   S
    C72    O74       0.93471      .   S
    Zr6    O74       1.85341      .   S
    C72    O75       0.89510      .   S
    Zr0    O75       1.79271      .   S
    C76    O77       1.10302      .   S
    N39    O77       2.17476      .   S
    C76    O78       0.93558      .   S
    Zr7    O78       1.85658  1_556   S
    C76    O79       0.89570      .   S
    Zr1    O79       1.79451  1_556   S
    C80    O81       1.10293      .   S
    N37    O81       2.17438      .   S
    C80    O82       0.89578      .   S
    Zr0    O82       1.79481  1_556   S
    C80    O83       0.93573      .   S
    Zr6    O83       1.85678  1_556   S
    C84    O85       1.10248      .   S
    N32    O85       2.17335      .   S
    C84    O86       0.93690      .   S
    Zr1    O86       1.85683  1_656   S
    C84    O87       0.89374      .   S
    Zr6    O87       1.79023  1_556   S
    C88    O89       0.93471      .   S
    Zr7    O89       1.85343      .   S
    C88    O90       0.89510      .   S
    Zr1    O90       1.79272      .   S
    C88    O91       1.10300      .   S
    N38    O91       2.17427      .   S
    C92    O93       0.89658      .   S
    Zr6    O93       1.79564      .   S
    C92    O94       1.10238      .   S
    N34    O94       2.17329  1_545   S
    C92    O95       0.93470      .   S
    Zr1    O95       1.85429  1_655   S
    C96    O97       1.10335      .   S
    N35    O97       2.17330  1_545   S
    C96    O98       0.93474      .   S
    Zr0    O98       1.85439      .   S
    C96    O99       0.89658      .   S
    Zr7    O99       1.79562      .   S
    C100   O101      0.93695      .   S
    Zr0    O101      1.85695  1_556   S
    C100   O102      1.10229      .   S
    N36    O102      2.17331      .   S
    C100   O103      0.89374      .   S
    Zr7    O103      1.79023  1_556   S
