# CIF file generated by openbabel 2.4.90, see http://openbabel.sf.net
data_I
_chemical_name_common ''
_cell_length_a 13.464
_cell_length_b 14.949
_cell_length_c 14.953
_cell_angle_alpha 89.953
_cell_angle_beta 89.982
_cell_angle_gamma 89.964
_space_group_name_H-M_alt 'P 1'
_space_group_name_Hall 'P 1'
loop_
    _symmetry_equiv_pos_as_xyz
    x,y,z
loop_
    _atom_site_label
    _atom_site_type_symbol
    _atom_site_fract_x
    _atom_site_fract_y
    _atom_site_fract_z
    _atom_site_occupancy
    Cd0     Cd   0.00006   0.25500   0.25486   1.000
    Cd1     Cd   0.75005   0.75503   0.24511   1.000
    Cd2     Cd   0.25008   0.24510   0.75515   1.000
    Cd3     Cd   0.50003   0.74539   0.74510   1.000
    C4      C    0.90980   0.79750   0.36219   1.000
    O5      O    0.89975   0.84739   0.29382   1.000
    O6      O    0.85031   0.73445   0.38290   1.000
    O7      O    0.10036   0.29400   0.84742   1.000
    C8      C    0.09037   0.36237   0.79751   1.000
    C9      C    0.40974   0.20255   0.63789   1.000
    C10     C    0.59036   0.63790   0.20260   1.000
    C11     C    0.15978   0.13782   0.29742   1.000
    C12     C    0.34041   0.70261   0.86245   1.000
    C13     C    0.65981   0.86249   0.70255   1.000
    C14     C    0.84032   0.29752   0.13782   1.000
    O15     O    0.14984   0.38294   0.73438   1.000
    O16     O    0.39972   0.15266   0.70627   1.000
    O17     O    0.35018   0.26560   0.61717   1.000
    O18     O    0.60034   0.70628   0.15271   1.000
    O19     O    0.64990   0.61717   0.26562   1.000
    O20     O    0.14964   0.20614   0.34727   1.000
    O21     O    0.10029   0.11712   0.23441   1.000
    O22     O    0.35045   0.65268   0.79419   1.000
    O23     O    0.39984   0.76573   0.88294   1.000
    O24     O    0.64975   0.79429   0.65257   1.000
    O25     O    0.60029   0.88304   0.76560   1.000
    O26     O    0.85039   0.34739   0.20611   1.000
    O27     O    0.89986   0.23447   0.11713   1.000
    Ts28    Ts   0.96151   0.22663   0.28161   1.000
    Ts29    Ts   0.03868   0.28175   0.22652   1.000
    Ts30    Ts   0.00005   0.29377   0.29366   1.000
    Ts31    Ts   0.71158   0.78180   0.27351   1.000
    Ts32    Ts   0.78862   0.72667   0.21841   1.000
    Ts33    Ts   0.75002   0.79389   0.20629   1.000
    Ts34    Ts   0.25003   0.20628   0.79397   1.000
    Ts35    Ts   0.21154   0.21836   0.72680   1.000
    Ts36    Ts   0.28862   0.27347   0.78188   1.000
    Ts37    Ts   0.46142   0.77370   0.71836   1.000
    Ts38    Ts   0.53861   0.71867   0.77348   1.000
    Ts39    Ts   0.50012   0.70657   0.70635   1.000
    Og40    Og   0.93929   0.80303   0.38212   1.000
    Og41    Og   0.06090   0.38235   0.80304   1.000
    Og42    Og   0.43925   0.19703   0.61796   1.000
    Og43    Og   0.56087   0.61797   0.19709   1.000
    Og44    Og   0.18931   0.11791   0.30296   1.000
    Og45    Og   0.31093   0.69707   0.88242   1.000
    Og46    Og   0.68932   0.88242   0.69704   1.000
    Og47    Og   0.81080   0.30306   0.11791   1.000
loop_
    _geom_bond_atom_site_label_1
    _geom_bond_atom_site_label_2
    _geom_bond_distance
    _geom_bond_site_symmetry_2
    _ccdc_geom_bond_type
    O27    C14       1.27526      .   S
    O27    Cd0       2.48173  1_655   S
    C14    O26       1.27211      .   S
    O18    C10       1.27216      .   S
    C10    O19       1.27531      .   S
    O26    Cd0       2.54867  1_655   S
    O21    Cd0       2.48187      .   S
    O21    C11       1.27525      .   S
    Cd1    O19       2.48234      .   S
    Cd1    O6        2.48236      .   S
    O5     C4        1.27218      .   S
    C11    O20       1.27218      .   S
    C4     O6        1.27521      .   S
    O17    C9        1.27523      .   S
    O17    Cd2       2.48291      .   S
    C9     O16       1.27225      .   S
    O24    C13       1.27204      .   S
    C13    O25       1.27479      .   S
    O15    Cd2       2.48194      .   S
    O15    C8        1.27520      .   S
    Cd3    O25       2.48092      .   S
    Cd3    O23       2.48170      .   S
    Cd2    O7        2.54941      .   S
    O22    C12       1.27207      .   S
    C8     O7        1.27221      .   S
    C12    O23       1.27524      .   S
    O16    Cd2       2.54949      .   S
    O20    Cd0       2.54887      .   S
    Cd0    Ts28      0.78053  1_455   S
    Cd0    Ts29      0.78082      .   S
    Cd0    Ts30      0.82043      .   S
    Cd1    Ts31      0.78016      .   S
    Cd1    Ts32      0.78014      .   S
    Cd1    Ts33      0.82091      .   S
    Cd2    Ts34      0.82047      .   S
    Cd2    Ts35      0.78068      .   S
    Cd2    Ts36      0.78072      .   S
    Cd3    Ts37      0.78025      .   S
    Cd3    Ts38      0.78048      .   S
    Cd3    Ts39      0.82035      .   S
    C4     Og40      0.50344      .   S
    C8     Og41      0.50335      .   S
    C9     Og42      0.50342      .   S
    C10    Og43      0.50339      .   S
    C11    Og44      0.50335      .   S
    C12    Og45      0.50344      .   S
    C13    Og46      0.50345      .   S
    C14    Og47      0.50339      .   S
