# CIF file generated by openbabel 2.4.90, see http://openbabel.sf.net
data_I
_chemical_name_common ''
_cell_length_a 13.928
_cell_length_b 19.233
_cell_length_c 17.934
_cell_angle_alpha 102.2
_cell_angle_beta 96.875
_cell_angle_gamma 105.929
_space_group_name_H-M_alt 'P 1'
_space_group_name_Hall 'P 1'
loop_
    _symmetry_equiv_pos_as_xyz
    x,y,z
loop_
    _atom_site_label
    _atom_site_type_symbol
    _atom_site_fract_x
    _atom_site_fract_y
    _atom_site_fract_z
    _atom_site_occupancy
    Mc0     Mc   0.48772   0.11289   0.95118   1.000
    Mc1     Mc   0.13725   0.26214   0.55011   1.000
    Mc2     Mc   0.63723   0.26214   0.55009   1.000
    Mc3     Mc   0.98772   0.11289   0.95117   1.000
    Mc4     Mc   0.51225   0.88619   0.04879   1.000
    Mc5     Mc   0.36274   0.23786   0.44985   1.000
    Mc6     Mc   0.98772   0.61289   0.95118   1.000
    Mc7     Mc   0.13725   0.76214   0.55009   1.000
    Mc8     Mc   0.01225   0.88619   0.04871   1.000
    Mc9     Mc   0.86271   0.23786   0.44985   1.000
    Mc10    Mc   0.63723   0.76214   0.55008   1.000
    Mc11    Mc   0.48772   0.61289   0.95118   1.000
    Mc12    Mc   0.36274   0.73787   0.44985   1.000
    Mc13    Mc   0.01224   0.38711   0.04879   1.000
    Mc14    Mc   0.51224   0.38711   0.04871   1.000
    Mc15    Mc   0.86272   0.73787   0.44985   1.000
