# CIF file generated by openbabel 2.4.90, see http://openbabel.sf.net
data_I
_chemical_name_common ''
_cell_length_a 13.928
_cell_length_b 19.233
_cell_length_c 17.934
_cell_angle_alpha 102.2
_cell_angle_beta 96.875
_cell_angle_gamma 105.929
_space_group_name_H-M_alt 'P 1'
_space_group_name_Hall 'P 1'
loop_
    _symmetry_equiv_pos_as_xyz
    x,y,z
loop_
    _atom_site_label
    _atom_site_type_symbol
    _atom_site_fract_x
    _atom_site_fract_y
    _atom_site_fract_z
    _atom_site_occupancy
    Lv0     Lv   0.42788   0.05540   0.71723   1.000
    Lv1     Lv   0.19535   0.32188   0.78349   1.000
    Lv2     Lv   0.69533   0.32188   0.78349   1.000
    Lv3     Lv   0.92785   0.05540   0.71721   1.000
    Lv4     Lv   0.57209   0.94460   0.28273   1.000
    Lv5     Lv   0.30463   0.17813   0.21648   1.000
    Lv6     Lv   0.92786   0.55541   0.71723   1.000
    Lv7     Lv   0.19535   0.82188   0.78349   1.000
    Lv8     Lv   0.07211   0.94460   0.28273   1.000
    Lv9     Lv   0.80461   0.17813   0.21648   1.000
    Lv10    Lv   0.69533   0.82188   0.78349   1.000
    Lv11    Lv   0.42788   0.55540   0.71723   1.000
    Lv12    Lv   0.30463   0.67813   0.21648   1.000
    Lv13    Lv   0.07211   0.44460   0.28273   1.000
    Lv14    Lv   0.57209   0.44460   0.28273   1.000
    Lv15    Lv   0.80461   0.67813   0.21648   1.000
