# CIF file generated by openbabel 2.4.90, see http://openbabel.sf.net
data_I
_chemical_name_common ''
_cell_length_a 13.928
_cell_length_b 19.233
_cell_length_c 17.934
_cell_angle_alpha 102.2
_cell_angle_beta 96.875
_cell_angle_gamma 105.929
_space_group_name_H-M_alt 'P 1'
_space_group_name_Hall 'P 1'
loop_
    _symmetry_equiv_pos_as_xyz
    x,y,z
loop_
    _atom_site_label
    _atom_site_type_symbol
    _atom_site_fract_x
    _atom_site_fract_y
    _atom_site_fract_z
    _atom_site_occupancy
    H0      H    0.40020   0.02545   0.02344   1.000
    H1      H    0.40020   0.52545   0.02344   1.000
    H2      H    0.90018   0.02545   0.02344   1.000
    H3      H    0.90018   0.52545   0.02344   1.000
    H4      H    0.11183   0.23564   0.02320   1.000
    H5      H    0.11183   0.73564   0.02320   1.000
    H6      H    0.61181   0.23564   0.02320   1.000
    H7      H    0.61181   0.73564   0.02320   1.000
    H8      H    0.07918   0.20024   0.87989   1.000
    H9      H    0.07919   0.70024   0.87989   1.000
    H10     H    0.57917   0.20024   0.87989   1.000
    H11     H    0.57917   0.70024   0.87989   1.000
    H12     H    0.36010   0.99075   0.88017   1.000
    H13     H    0.36010   0.49075   0.88017   1.000
    H14     H    0.86008   0.99076   0.88017   1.000
    H15     H    0.86008   0.49076   0.88017   1.000
    H16     H    0.18697   0.35779   0.47613   1.000
    H17     H    0.18698   0.85779   0.47613   1.000
    H18     H    0.68695   0.35779   0.47613   1.000
    H19     H    0.68695   0.85779   0.47613   1.000
    H20     H    0.05119   0.12915   0.47894   1.000
    H21     H    0.05120   0.62916   0.47894   1.000
    H22     H    0.55117   0.12915   0.47894   1.000
    H23     H    0.55117   0.62915   0.47894   1.000
    H24     H    0.22650   0.39531   0.62056   1.000
    H25     H    0.22651   0.89531   0.62056   1.000
    H26     H    0.72648   0.39531   0.62056   1.000
    H27     H    0.72649   0.89531   0.62056   1.000
    H28     H    0.08395   0.16592   0.62335   1.000
    H29     H    0.08395   0.66592   0.62335   1.000
    H30     H    0.58392   0.16592   0.62335   1.000
    H31     H    0.58393   0.66592   0.62335   1.000
    H32     H    0.09978   0.47455   0.97652   1.000
    H33     H    0.09978   0.97455   0.97652   1.000
    H34     H    0.59976   0.47455   0.97652   1.000
    H35     H    0.59977   0.97456   0.97650   1.000
    H36     H    0.38815   0.26436   0.97676   1.000
    H37     H    0.38816   0.76436   0.97676   1.000
    H38     H    0.88813   0.26436   0.97676   1.000
    H39     H    0.88814   0.76436   0.97676   1.000
    H40     H    0.42080   0.29976   0.12008   1.000
    H41     H    0.42080   0.79976   0.12008   1.000
    H42     H    0.92078   0.29976   0.12008   1.000
    H43     H    0.92078   0.79977   0.12008   1.000
    H44     H    0.13988   0.50924   0.11979   1.000
    H45     H    0.13989   0.00000   0.11900   1.000
    H46     H    0.63986   0.50925   0.11900   1.000
    H47     H    0.63987   0.00000   0.11980   1.000
    H48     H    0.31301   0.14221   0.52384   1.000
    H49     H    0.31302   0.64221   0.52384   1.000
    H50     H    0.81299   0.14221   0.52384   1.000
    H51     H    0.81300   0.64221   0.52384   1.000
    H52     H    0.44879   0.37085   0.52102   1.000
    H53     H    0.44879   0.87085   0.52102   1.000
    H54     H    0.94877   0.37085   0.52102   1.000
    H55     H    0.94877   0.87085   0.52102   1.000
    H56     H    0.27348   0.10469   0.37940   1.000
    H57     H    0.27348   0.60469   0.37940   1.000
    H58     H    0.77346   0.10469   0.37940   1.000
    H59     H    0.77346   0.60469   0.37940   1.000
    H60     H    0.41604   0.33408   0.37661   1.000
    H61     H    0.41604   0.83408   0.37661   1.000
    H62     H    0.91602   0.33408   0.37661   1.000
    H63     H    0.91601   0.83408   0.37661   1.000
    C64     C    0.46697   0.09285   0.86930   1.000
    C65     C    0.46697   0.59285   0.86930   1.000
    C66     C    0.96695   0.09285   0.86930   1.000
    C67     C    0.96695   0.59285   0.86930   1.000
    C68     C    0.00833   0.13269   0.03222   1.000
    C69     C    0.00833   0.63270   0.03222   1.000
    C70     C    0.50831   0.13269   0.03222   1.000
    C71     C    0.50831   0.63270   0.03222   1.000
    C72     C    0.43823   0.06346   0.99133   1.000
    C73     C    0.43823   0.56347   0.99133   1.000
    C74     C    0.93821   0.06346   0.99130   1.000
    C75     C    0.93822   0.56347   0.99133   1.000
    C76     C    0.05759   0.18192   0.99120   1.000
    C77     C    0.05760   0.68192   0.99120   1.000
    C78     C    0.55757   0.18192   0.99120   1.000
    C79     C    0.55758   0.68192   0.99120   1.000
    C80     C    0.88288   0.75868   0.53077   1.000
    C81     C    0.39274   0.29190   0.40849   1.000
    C82     C    0.39275   0.79190   0.40849   1.000
    C83     C    0.89272   0.29190   0.40849   1.000
    C84     C    0.03810   0.16190   0.91043   1.000
    C85     C    0.03811   0.66190   0.91043   1.000
    C86     C    0.53809   0.16190   0.91043   1.000
    C87     C    0.53809   0.66190   0.91043   1.000
    C88     C    0.41673   0.04398   0.91058   1.000
    C89     C    0.41673   0.54398   0.91058   1.000
    C90     C    0.91671   0.04398   0.91058   1.000
    C91     C    0.91671   0.54398   0.91058   1.000
    C92     C    0.16614   0.31632   0.50916   1.000
    C93     C    0.16614   0.81632   0.50916   1.000
    C94     C    0.66612   0.31632   0.50916   1.000
    C95     C    0.66612   0.81632   0.50916   1.000
    C96     C    0.08824   0.18729   0.51072   1.000
    C97     C    0.08824   0.68729   0.51070   1.000
    C98     C    0.58822   0.18729   0.51070   1.000
    C99     C    0.58822   0.68729   0.51070   1.000
    C100    C    0.18752   0.33706   0.58992   1.000
    C101    C    0.18752   0.83706   0.58992   1.000
    C102    C    0.68749   0.33706   0.58992   1.000
    C103    C    0.68750   0.83706   0.58992   1.000
    C104    C    0.11708   0.24132   0.46919   1.000
    C105    C    0.11709   0.74133   0.46900   1.000
    C106    C    0.61706   0.24132   0.46900   1.000
    C107    C    0.61706   0.74133   0.46900   1.000
    C108    C    0.10724   0.20810   0.59147   1.000
    C109    C    0.10724   0.70810   0.59147   1.000
    C110    C    0.60722   0.20810   0.59147   1.000
    C111    C    0.60722   0.70810   0.59140   1.000
    C112    C    0.15764   0.28310   0.63165   1.000
    C113    C    0.15765   0.78310   0.63165   1.000
    C114    C    0.65762   0.28310   0.63165   1.000
    C115    C    0.65763   0.78310   0.63165   1.000
    C116    C    0.03301   0.40715   0.13066   1.000
    C117    C    0.03302   0.90716   0.13066   1.000
    C118    C    0.53299   0.40715   0.13066   1.000
    C119    C    0.53300   0.90716   0.13066   1.000
    C120    C    0.49165   0.36730   0.96775   1.000
    C121    C    0.49166   0.86731   0.96775   1.000
    C122    C    0.99164   0.36731   0.96775   1.000
    C123    C    0.99164   0.86731   0.96775   1.000
    C124    C    0.06175   0.43654   0.00863   1.000
    C125    C    0.06175   0.93654   0.00863   1.000
    C126    C    0.56173   0.43654   0.00863   1.000
    C127    C    0.56174   0.93654   0.00863   1.000
    C128    C    0.44239   0.31808   0.00877   1.000
    C129    C    0.44240   0.81808   0.00877   1.000
    C130    C    0.94237   0.31808   0.00877   1.000
    C131    C    0.94237   0.81808   0.00877   1.000
    C132    C    0.46188   0.33810   0.08953   1.000
    C133    C    0.46188   0.83811   0.08953   1.000
    C134    C    0.96186   0.33811   0.08953   1.000
    C135    C    0.96186   0.83811   0.08953   1.000
    C136    C    0.08325   0.45602   0.08938   1.000
    C137    C    0.08326   0.95602   0.08938   1.000
    C138    C    0.58323   0.45602   0.08938   1.000
    C139    C    0.58324   0.95603   0.08938   1.000
    C140    C    0.33385   0.18368   0.49080   1.000
    C141    C    0.33385   0.68368   0.49080   1.000
    C142    C    0.83382   0.18368   0.49080   1.000
    C143    C    0.83383   0.68368   0.49080   1.000
    C144    C    0.41175   0.31271   0.48924   1.000
    C145    C    0.41175   0.81271   0.48924   1.000
    C146    C    0.91172   0.31271   0.48924   1.000
    C147    C    0.91173   0.81271   0.48924   1.000
    C148    C    0.31247   0.16294   0.41004   1.000
    C149    C    0.31247   0.66294   0.41004   1.000
    C150    C    0.81244   0.16294   0.41004   1.000
    C151    C    0.81245   0.66294   0.41000   1.000
    C152    C    0.38290   0.25868   0.53077   1.000
    C153    C    0.38290   0.75868   0.53077   1.000
    C154    C    0.88288   0.25868   0.53077   1.000
    C155    C    0.89272   0.79190   0.40849   1.000
    C156    C    0.34234   0.21690   0.36832   1.000
    C157    C    0.34234   0.71690   0.36832   1.000
    C158    C    0.84232   0.21690   0.36832   1.000
    C159    C    0.84232   0.71690   0.36832   1.000
loop_
    _geom_bond_atom_site_label_1
    _geom_bond_atom_site_label_2
    _geom_bond_distance
    _geom_bond_site_symmetry_2
    _ccdc_geom_bond_type
    C124   C136      1.39015      .   S
    C124   C122      1.40224  1_454   S
    C124   H32       1.08864  1_554   S
    C125   C137      1.39015      .   S
    C125   C123      1.40223  1_454   S
    C125   H33       1.08864  1_554   S
    C126   C138      1.39015      .   S
    C126   C120      1.40207  1_554   S
    C126   H34       1.08864  1_554   S
    C127   C139      1.39015      .   S
    C127   C121      1.40207  1_554   S
    C127   H35       1.08891  1_554   S
    C129   C133      1.39013      .   S
    C129   C121      1.40256  1_554   S
    C129   H37       1.08843  1_554   S
    C128   C132      1.39013      .   S
    C128   C120      1.40254  1_554   S
    C128   H36       1.08845  1_554   S
    C130   C134      1.39013      .   S
    C130   C122      1.40253  1_554   S
    C130   H38       1.08844  1_554   S
    C131   C135      1.39013      .   S
    C131   C123      1.40254  1_554   S
    C131   H39       1.08845  1_554   S
    H7     C79       1.08840  1_554   S
    H6     C78       1.08840  1_554   S
    H5     C77       1.08840  1_554   S
    H4     C76       1.08840  1_554   S
    H0     C72       1.08865  1_554   S
    H1     C73       1.08866  1_554   S
    H2     C74       1.08903  1_554   S
    H3     C75       1.08866  1_554   S
    C71    C79       1.40256  1_554   S
    C71    C73       1.40210  1_554   S
    C70    C78       1.40255  1_554   S
    C70    C72       1.40212  1_554   S
    C68    C76       1.40253  1_554   S
    C68    C74       1.40241  1_454   S
    C69    C77       1.40254  1_554   S
    C69    C75       1.40227  1_454   S
    C138   H46       1.08576      .   S
    C138   C118      1.40647      .   S
    C137   H45       0.98149  1_565   S
    C137   C117      1.40648      .   S
    C139   H47       0.98531  1_565   S
    C139   C119      1.40647      .   S
    C136   H44       1.08872      .   S
    C136   C116      1.40647      .   S
    C132   H40       1.08884      .   S
    C132   C118      1.40640      .   S
    C133   H41       1.08885      .   S
    C133   C119      1.40640      .   S
    C134   H42       1.08883      .   S
    C134   C116      1.40657  1_655   S
    C135   H43       1.08884      .   S
    C135   C117      1.40656  1_655   S
    C156   C81       1.40583      .   S
    C156   C148      1.40559      .   S
    C157   C82       1.40583      .   S
    C157   C149      1.40559      .   S
    C158   C83       1.40581      .   S
    C158   C150      1.40561      .   S
    C159   C155      1.40583      .   S
    C159   C151      1.40508      .   S
    H63    C155      1.08912      .   S
    H62    C83       1.08914      .   S
    H61    C82       1.08914      .   S
    H60    C81       1.08915      .   S
    H58    C150      1.08922      .   S
    H59    C151      1.08905      .   S
    H56    C148      1.08922      .   S
    H57    C149      1.08922      .   S
    C81    C144      1.39017      .   S
    C82    C145      1.39016      .   S
    C83    C146      1.39017      .   S
    C155   C147      1.39016      .   S
    C151   C143      1.39096      .   S
    C150   C142      1.39028      .   S
    C148   C140      1.39028      .   S
    C149   C141      1.39028      .   S
    C105   C93       1.40298      .   S
    C105   C97       1.40421      .   S
    C106   C94       1.40298      .   S
    C106   C98       1.40421      .   S
    C107   C95       1.40299      .   S
    C107   C99       1.40420      .   S
    C104   C92       1.40218      .   S
    C104   C96       1.40200      .   S
    H17    C93       1.08854      .   S
    H18    C94       1.08853      .   S
    H19    C95       1.08855      .   S
    H16    C92       1.08854      .   S
    H20    C96       1.08858      .   S
    H23    C99       1.08849      .   S
    H21    C97       1.08849      .   S
    H22    C98       1.08849      .   S
    C147   H55       1.08859      .   S
    C147   C80       1.40200      .   S
    C146   H54       1.08858      .   S
    C146   C154      1.40201      .   S
    C145   H53       1.08858      .   S
    C145   C153      1.40200      .   S
    C144   H52       1.08858      .   S
    C144   C152      1.40201      .   S
    C143   H51       1.08867      .   S
    C143   C80       1.40218      .   S
    C142   H50       1.08867      .   S
    C142   C154      1.40218      .   S
    C141   H49       1.08867      .   S
    C141   C153      1.40218      .   S
    C140   H48       1.08867      .   S
    C140   C152      1.40218      .   S
    C94    C102      1.39028      .   S
    C95    C103      1.39028      .   S
    C92    C100      1.39028      .   S
    C93    C101      1.39028      .   S
    C99    C111      1.38931      .   S
    C98    C110      1.39051      .   S
    C97    C109      1.39051      .   S
    C96    C108      1.39016      .   S
    C100   H24       1.08920      .   S
    C100   C112      1.40574      .   S
    C101   H25       1.08922      .   S
    C101   C113      1.40572      .   S
    C102   H26       1.08922      .   S
    C102   C114      1.40572      .   S
    C103   H27       1.08920      .   S
    C103   C115      1.40573      .   S
    C111   H31       1.09004      .   S
    C111   C115      1.40617      .   S
    C108   H28       1.08914      .   S
    C108   C112      1.40587      .   S
    C109   H29       1.08914      .   S
    C109   C113      1.40587      .   S
    C110   H30       1.08915      .   S
    C110   C114      1.40587      .   S
    C64    C86       1.40639      .   S
    C64    C88       1.40648      .   S
    C65    C87       1.40640      .   S
    C65    C89       1.40648      .   S
    C66    C84       1.40656  1_655   S
    C66    C90       1.40647      .   S
    C67    C85       1.40656  1_655   S
    C67    C91       1.40647      .   S
    H8     C84       1.08872      .   S
    H9     C85       1.08871      .   S
    H10    C86       1.08873      .   S
    H11    C87       1.08872      .   S
    H12    C88       1.08872  1_565   S
    H13    C89       1.08872      .   S
    H14    C90       1.08872  1_565   S
    H15    C91       1.08873      .   S
    C87    C79       1.39030      .   S
    C86    C78       1.39030      .   S
    C85    C77       1.39030      .   S
    C84    C76       1.39030      .   S
    C91    C75       1.39015      .   S
    C90    C74       1.38963      .   S
    C89    C73       1.39015      .   S
    C88    C72       1.39015      .   S
