# CIF file generated by openbabel 2.4.90, see http://openbabel.sf.net
data_I
_chemical_name_common ''
_cell_length_a 13.928
_cell_length_b 19.233
_cell_length_c 17.934
_cell_angle_alpha 102.2
_cell_angle_beta 96.875
_cell_angle_gamma 105.929
_space_group_name_H-M_alt 'P 1'
_space_group_name_Hall 'P 1'
loop_
    _symmetry_equiv_pos_as_xyz
    x,y,z
loop_
    _atom_site_label
    _atom_site_type_symbol
    _atom_site_fract_x
    _atom_site_fract_y
    _atom_site_fract_z
    _atom_site_occupancy
    C0      C    0.44526   0.07196   0.78426   1.000
    C1      C    0.44526   0.57196   0.78426   1.000
    C2      C    0.94524   0.07196   0.78426   1.000
    C3      C    0.94524   0.57196   0.78426   1.000
    C4      C    0.17884   0.30487   0.71668   1.000
    C5      C    0.17884   0.80487   0.71668   1.000
    C6      C    0.67882   0.30487   0.71668   1.000
    C7      C    0.67882   0.80487   0.71668   1.000
    N8      N    0.08111   0.42331   0.33708   1.000
    N9      N    0.08111   0.92331   0.33708   1.000
    N10     N    0.58109   0.42331   0.33708   1.000
    N11     N    0.58109   0.92331   0.33708   1.000
    N12     N    0.09139   0.49277   0.33712   1.000
    C13     C    0.05472   0.42804   0.21570   1.000
    C14     C    0.05472   0.92804   0.21571   1.000
    C15     C    0.55470   0.42804   0.21570   1.000
    C16     C    0.55471   0.92804   0.21571   1.000
    C17     C    0.32114   0.19513   0.28329   1.000
    C18     C    0.32115   0.69513   0.28329   1.000
    C19     C    0.82112   0.19513   0.28329   1.000
    C20     C    0.82112   0.69513   0.28329   1.000
    N21     N    0.44178   0.11872   0.73814   1.000
    N22     N    0.44178   0.61873   0.73814   1.000
    N23     N    0.94176   0.11872   0.73810   1.000
    N24     N    0.94176   0.61873   0.73814   1.000
    N25     N    0.11323   0.28275   0.76283   1.000
    N26     N    0.11323   0.78275   0.76283   1.000
    N27     N    0.61321   0.28275   0.76283   1.000
    N28     N    0.61321   0.78275   0.76283   1.000
    N29     N    0.25470   0.35587   0.83762   1.000
    N30     N    0.25470   0.85587   0.83762   1.000
    N31     N    0.75468   0.35587   0.83762   1.000
    N32     N    0.75468   0.85587   0.83762   1.000
    N33     N    0.16280   0.31549   0.83787   1.000
    N34     N    0.16281   0.81550   0.83787   1.000
    N35     N    0.66279   0.31549   0.83787   1.000
    N36     N    0.66279   0.81550   0.83787   1.000
    N37     N    0.41888   0.07670   0.66288   1.000
    N38     N    0.41888   0.57670   0.66288   1.000
    N39     N    0.91885   0.07670   0.66280   1.000
    N40     N    0.91886   0.57670   0.66288   1.000
    N41     N    0.40861   0.00723   0.66284   1.000
    N42     N    0.40861   0.50723   0.66284   1.000
    N43     N    0.90858   0.00723   0.66284   1.000
    N44     N    0.90858   0.50723   0.66284   1.000
    N45     N    0.26718   0.35039   0.76244   1.000
    N46     N    0.26718   0.85040   0.76244   1.000
    N47     N    0.76716   0.35040   0.76244   1.000
    N48     N    0.76716   0.85040   0.76244   1.000
    N49     N    0.42486   0.00240   0.73805   1.000
    N50     N    0.42486   0.50240   0.73805   1.000
    N51     N    0.92484   0.00240   0.73805   1.000
    N52     N    0.92484   0.50240   0.73805   1.000
    N53     N    0.05821   0.38128   0.26182   1.000
    N54     N    0.05821   0.88128   0.26182   1.000
    N55     N    0.55819   0.38128   0.26182   1.000
    N56     N    0.55819   0.88128   0.26182   1.000
    N57     N    0.38676   0.21725   0.23714   1.000
    N58     N    0.38676   0.71725   0.23714   1.000
    N59     N    0.88674   0.21725   0.23714   1.000
    N60     N    0.88674   0.71725   0.23714   1.000
    N61     N    0.24529   0.14413   0.16234   1.000
    N62     N    0.24528   0.64414   0.16234   1.000
    N63     N    0.74527   0.14413   0.16234   1.000
    N64     N    0.74527   0.64413   0.16234   1.000
    N65     N    0.33718   0.18451   0.16210   1.000
    N66     N    0.33718   0.68451   0.16210   1.000
    N67     N    0.83716   0.18451   0.16210   1.000
    N68     N    0.83716   0.68451   0.16210   1.000
    N69     N    0.09138   0.99277   0.33712   1.000
    N70     N    0.59135   0.49277   0.33712   1.000
    N71     N    0.59135   0.99277   0.33712   1.000
    N72     N    0.23281   0.14960   0.23752   1.000
    N73     N    0.23281   0.64961   0.23752   1.000
    N74     N    0.73279   0.14961   0.23752   1.000
    N75     N    0.73279   0.64961   0.23752   1.000
    N76     N    0.07512   0.49760   0.26191   1.000
    N77     N    0.07512   0.99760   0.26190   1.000
    N78     N    0.57510   0.49760   0.26191   1.000
    N79     N    0.57511   0.99760   0.26190   1.000
loop_
    _geom_bond_atom_site_label_1
    _geom_bond_atom_site_label_2
    _geom_bond_distance
    _geom_bond_site_symmetry_2
    _ccdc_geom_bond_type
    N68    N64       1.30319      .   S
    N68    N60       1.36570      .   S
    N67    N63       1.30318      .   S
    N67    N59       1.36570      .   S
    N66    N62       1.30318      .   S
    N66    N58       1.36570      .   S
    N65    N61       1.30318      .   S
    N65    N57       1.36570      .   S
    N64    N75       1.36576      .   S
    N63    N74       1.36576      .   S
    N62    N73       1.36576      .   S
    N61    N72       1.36576      .   S
    C13    N53       1.35060      .   S
    C13    N76       1.35045      .   S
    C15    N55       1.35058      .   S
    C15    N78       1.35047      .   S
    C16    N56       1.35046      .   S
    C16    N79       1.35032      .   S
    C14    N54       1.35046      .   S
    C14    N77       1.35032      .   S
    N60    C20       1.34819      .   S
    N59    C19       1.34820      .   S
    N58    C18       1.34819      .   S
    N57    C17       1.34819      .   S
    N72    C17       1.34808      .   S
    N73    C18       1.34808      .   S
    N74    C19       1.34808      .   S
    N75    C20       1.34809      .   S
    N56    N11       1.36789      .   S
    N55    N10       1.36789      .   S
    N54    N9        1.36789      .   S
    N53    N8        1.36790      .   S
    N77    N69       1.36787      .   S
    N79    N71       1.36787      .   S
    N76    N12       1.36769      .   S
    N78    N70       1.36769      .   S
    N8     N12       1.30385      .   S
    N9     N69       1.30387      .   S
    N10    N70       1.30387      .   S
    N11    N71       1.30387      .   S
    N39    N43       1.30421      .   S
    N39    N23       1.36850      .   S
    N42    N38       1.30386      .   S
    N42    N50       1.36769      .   S
    N41    N37       1.30387      .   S
    N41    N49       1.36769      .   S
    N43    N51       1.36769      .   S
    N44    N40       1.30385      .   S
    N44    N52       1.36770      .   S
    N40    N24       1.36790      .   S
    N38    N22       1.36790      .   S
    N37    N21       1.36790      .   S
    C5     N46       1.34802      .   S
    C5     N26       1.34820      .   S
    C7     N48       1.34802      .   S
    C7     N28       1.34819      .   S
    C6     N47       1.34801      .   S
    C6     N27       1.34819      .   S
    C4     N45       1.34802      .   S
    C4     N25       1.34820      .   S
    N52    C3        1.35045      .   S
    N51    C2        1.35046      .   S
    N50    C1        1.35046      .   S
    N49    C0        1.35046      .   S
    N23    C2        1.35113      .   S
    N24    C3        1.35061      .   S
    N22    C1        1.35059      .   S
    N21    C0        1.35059      .   S
    N45    N29       1.36576      .   S
    N46    N30       1.36577      .   S
    N47    N31       1.36576      .   S
    N48    N32       1.36576      .   S
    N25    N33       1.36570      .   S
    N26    N34       1.36570      .   S
    N28    N36       1.36570      .   S
    N27    N35       1.36570      .   S
    N30    N34       1.30323      .   S
    N29    N33       1.30322      .   S
    N31    N35       1.30322      .   S
    N32    N36       1.30322      .   S
