# CIF file generated by openbabel 2.4.90, see http://openbabel.sf.net
data_I
_chemical_name_common ''
_cell_length_a 13.928
_cell_length_b 19.233
_cell_length_c 17.934
_cell_angle_alpha 102.2
_cell_angle_beta 96.875
_cell_angle_gamma 105.929
_space_group_name_H-M_alt 'P 1'
_space_group_name_Hall 'P 1'
loop_
    _symmetry_equiv_pos_as_xyz
    x,y,z
loop_
    _atom_site_label
    _atom_site_type_symbol
    _atom_site_fract_x
    _atom_site_fract_y
    _atom_site_fract_z
    _atom_site_occupancy
    H0      H    0.40020   0.02545   0.02344   1.000
    H1      H    0.40020   0.52545   0.02344   1.000
    H2      H    0.90018   0.02545   0.02344   1.000
    H3      H    0.90018   0.52545   0.02344   1.000
    H4      H    0.11183   0.23564   0.02320   1.000
    H5      H    0.11183   0.73564   0.02320   1.000
    H6      H    0.61181   0.23564   0.02320   1.000
    H7      H    0.61181   0.73564   0.02320   1.000
    H8      H    0.07918   0.20024   0.87989   1.000
    H9      H    0.07919   0.70024   0.87989   1.000
    H10     H    0.57917   0.20024   0.87989   1.000
    H11     H    0.57917   0.70024   0.87989   1.000
    H12     H    0.36010   0.99075   0.88017   1.000
    H13     H    0.36010   0.49075   0.88017   1.000
    H14     H    0.86008   0.99076   0.88017   1.000
    H15     H    0.86008   0.49076   0.88017   1.000
    H16     H    0.18697   0.35779   0.47613   1.000
    H17     H    0.18698   0.85779   0.47613   1.000
    H18     H    0.68695   0.35779   0.47613   1.000
    H19     H    0.68695   0.85779   0.47613   1.000
    H20     H    0.05119   0.12915   0.47894   1.000
    H21     H    0.05120   0.62916   0.47894   1.000
    H22     H    0.55117   0.12915   0.47894   1.000
    H23     H    0.55117   0.62915   0.47894   1.000
    H24     H    0.22650   0.39531   0.62056   1.000
    H25     H    0.22651   0.89531   0.62056   1.000
    H26     H    0.72648   0.39531   0.62056   1.000
    H27     H    0.72649   0.89531   0.62056   1.000
    H28     H    0.08395   0.16592   0.62335   1.000
    H29     H    0.08395   0.66592   0.62335   1.000
    H30     H    0.58392   0.16592   0.62335   1.000
    H31     H    0.58393   0.66592   0.62335   1.000
    H32     H    0.09978   0.47455   0.97652   1.000
    H33     H    0.09978   0.97455   0.97652   1.000
    H34     H    0.59976   0.47455   0.97652   1.000
    H35     H    0.59977   0.97456   0.97650   1.000
    H36     H    0.38815   0.26436   0.97676   1.000
    H37     H    0.38816   0.76436   0.97676   1.000
    H38     H    0.88813   0.26436   0.97676   1.000
    H39     H    0.88814   0.76436   0.97676   1.000
    H40     H    0.42080   0.29976   0.12008   1.000
    H41     H    0.42080   0.79976   0.12008   1.000
    H42     H    0.92078   0.29976   0.12008   1.000
    H43     H    0.92078   0.79977   0.12008   1.000
    H44     H    0.13988   0.50924   0.11979   1.000
    H45     H    0.13989   0.00000   0.11900   1.000
    H46     H    0.63986   0.50925   0.11900   1.000
    H47     H    0.63987   0.00000   0.11980   1.000
    H48     H    0.31301   0.14221   0.52384   1.000
    H49     H    0.31302   0.64221   0.52384   1.000
    H50     H    0.81299   0.14221   0.52384   1.000
    H51     H    0.81300   0.64221   0.52384   1.000
    H52     H    0.44879   0.37085   0.52102   1.000
    H53     H    0.44879   0.87085   0.52102   1.000
    H54     H    0.94877   0.37085   0.52102   1.000
    H55     H    0.94877   0.87085   0.52102   1.000
    H56     H    0.27348   0.10469   0.37940   1.000
    H57     H    0.27348   0.60469   0.37940   1.000
    H58     H    0.77346   0.10469   0.37940   1.000
    H59     H    0.77346   0.60469   0.37940   1.000
    H60     H    0.41604   0.33408   0.37661   1.000
    H61     H    0.41604   0.83408   0.37661   1.000
    H62     H    0.91602   0.33408   0.37661   1.000
    H63     H    0.91601   0.83408   0.37661   1.000
    C64     C    0.46697   0.09285   0.86930   1.000
    C65     C    0.46697   0.59285   0.86930   1.000
    C66     C    0.96695   0.09285   0.86930   1.000
    C67     C    0.96695   0.59285   0.86930   1.000
    C68     C    0.00833   0.13269   0.03222   1.000
    C69     C    0.00833   0.63270   0.03222   1.000
    C70     C    0.50831   0.13269   0.03222   1.000
    C71     C    0.50831   0.63270   0.03222   1.000
    C72     C    0.43823   0.06346   0.99133   1.000
    C73     C    0.43823   0.56347   0.99133   1.000
    C74     C    0.93821   0.06346   0.99130   1.000
    C75     C    0.93822   0.56347   0.99133   1.000
    C76     C    0.05759   0.18192   0.99120   1.000
    C77     C    0.05760   0.68192   0.99120   1.000
    C78     C    0.55757   0.18192   0.99120   1.000
    C79     C    0.55758   0.68192   0.99120   1.000
    C80     C    0.88288   0.75868   0.53077   1.000
    C81     C    0.39274   0.29190   0.40849   1.000
    C82     C    0.39275   0.79190   0.40849   1.000
    C83     C    0.89272   0.29190   0.40849   1.000
    C84     C    0.03810   0.16190   0.91043   1.000
    C85     C    0.03811   0.66190   0.91043   1.000
    C86     C    0.53809   0.16190   0.91043   1.000
    C87     C    0.53809   0.66190   0.91043   1.000
    C88     C    0.41673   0.04398   0.91058   1.000
    C89     C    0.41673   0.54398   0.91058   1.000
    C90     C    0.91671   0.04398   0.91058   1.000
    C91     C    0.91671   0.54398   0.91058   1.000
    C92     C    0.44526   0.07196   0.78426   1.000
    C93     C    0.44526   0.57196   0.78426   1.000
    C94     C    0.94524   0.07196   0.78426   1.000
    C95     C    0.94524   0.57196   0.78426   1.000
    C96     C    0.17884   0.30487   0.71668   1.000
    C97     C    0.17884   0.80487   0.71668   1.000
    C98     C    0.67882   0.30487   0.71668   1.000
    C99     C    0.67882   0.80487   0.71668   1.000
    C100    C    0.16614   0.31632   0.50916   1.000
    C101    C    0.16614   0.81632   0.50916   1.000
    C102    C    0.66612   0.31632   0.50916   1.000
    C103    C    0.66612   0.81632   0.50916   1.000
    C104    C    0.08824   0.18729   0.51072   1.000
    C105    C    0.08824   0.68729   0.51070   1.000
    C106    C    0.58822   0.18729   0.51070   1.000
    C107    C    0.58822   0.68729   0.51070   1.000
    N108    N    0.08111   0.42331   0.33708   1.000
    N109    N    0.08111   0.92331   0.33708   1.000
    N110    N    0.58109   0.42331   0.33708   1.000
    N111    N    0.58109   0.92331   0.33708   1.000
    N112    N    0.09139   0.49277   0.33712   1.000
    C113    C    0.18752   0.33706   0.58992   1.000
    C114    C    0.18752   0.83706   0.58992   1.000
    C115    C    0.68749   0.33706   0.58992   1.000
    C116    C    0.68750   0.83706   0.58992   1.000
    C117    C    0.11708   0.24132   0.46919   1.000
    C118    C    0.11709   0.74133   0.46900   1.000
    C119    C    0.61706   0.24132   0.46900   1.000
    C120    C    0.61706   0.74133   0.46900   1.000
    C121    C    0.10724   0.20810   0.59147   1.000
    C122    C    0.10724   0.70810   0.59147   1.000
    C123    C    0.60722   0.20810   0.59147   1.000
    C124    C    0.60722   0.70810   0.59140   1.000
    C125    C    0.15764   0.28310   0.63165   1.000
    C126    C    0.15765   0.78310   0.63165   1.000
    C127    C    0.65762   0.28310   0.63165   1.000
    C128    C    0.65763   0.78310   0.63165   1.000
    C129    C    0.03301   0.40715   0.13066   1.000
    C130    C    0.03302   0.90716   0.13066   1.000
    C131    C    0.53299   0.40715   0.13066   1.000
    C132    C    0.53300   0.90716   0.13066   1.000
    C133    C    0.49165   0.36730   0.96775   1.000
    C134    C    0.49166   0.86731   0.96775   1.000
    C135    C    0.99164   0.36731   0.96775   1.000
    C136    C    0.99164   0.86731   0.96775   1.000
    C137    C    0.06175   0.43654   0.00863   1.000
    C138    C    0.06175   0.93654   0.00863   1.000
    C139    C    0.56173   0.43654   0.00863   1.000
    C140    C    0.56174   0.93654   0.00863   1.000
    C141    C    0.44239   0.31808   0.00877   1.000
    C142    C    0.44240   0.81808   0.00877   1.000
    C143    C    0.94237   0.31808   0.00877   1.000
    C144    C    0.94237   0.81808   0.00877   1.000
    C145    C    0.46188   0.33810   0.08953   1.000
    C146    C    0.46188   0.83811   0.08953   1.000
    C147    C    0.96186   0.33811   0.08953   1.000
    C148    C    0.96186   0.83811   0.08953   1.000
    C149    C    0.08325   0.45602   0.08938   1.000
    C150    C    0.08326   0.95602   0.08938   1.000
    C151    C    0.58323   0.45602   0.08938   1.000
    C152    C    0.58324   0.95603   0.08938   1.000
    C153    C    0.05472   0.42804   0.21570   1.000
    C154    C    0.05472   0.92804   0.21571   1.000
    C155    C    0.55470   0.42804   0.21570   1.000
    C156    C    0.55471   0.92804   0.21571   1.000
    C157    C    0.32114   0.19513   0.28329   1.000
    C158    C    0.32115   0.69513   0.28329   1.000
    C159    C    0.82112   0.19513   0.28329   1.000
    C160    C    0.82112   0.69513   0.28329   1.000
    C161    C    0.33385   0.18368   0.49080   1.000
    C162    C    0.33385   0.68368   0.49080   1.000
    C163    C    0.83382   0.18368   0.49080   1.000
    C164    C    0.83383   0.68368   0.49080   1.000
    C165    C    0.41175   0.31271   0.48924   1.000
    C166    C    0.41175   0.81271   0.48924   1.000
    C167    C    0.91172   0.31271   0.48924   1.000
    C168    C    0.91173   0.81271   0.48924   1.000
    C169    C    0.31247   0.16294   0.41004   1.000
    C170    C    0.31247   0.66294   0.41004   1.000
    C171    C    0.81244   0.16294   0.41004   1.000
    C172    C    0.81245   0.66294   0.41000   1.000
    C173    C    0.38290   0.25868   0.53077   1.000
    C174    C    0.38290   0.75868   0.53077   1.000
    C175    C    0.88288   0.25868   0.53077   1.000
    C176    C    0.89272   0.79190   0.40849   1.000
    C177    C    0.34234   0.21690   0.36832   1.000
    C178    C    0.34234   0.71690   0.36832   1.000
    C179    C    0.84232   0.21690   0.36832   1.000
    C180    C    0.84232   0.71690   0.36832   1.000
    N181    N    0.44178   0.11872   0.73814   1.000
    N182    N    0.44178   0.61873   0.73814   1.000
    N183    N    0.94176   0.11872   0.73810   1.000
    N184    N    0.94176   0.61873   0.73814   1.000
    N185    N    0.11323   0.28275   0.76283   1.000
    N186    N    0.11323   0.78275   0.76283   1.000
    N187    N    0.61321   0.28275   0.76283   1.000
    N188    N    0.61321   0.78275   0.76283   1.000
    N189    N    0.25470   0.35587   0.83762   1.000
    N190    N    0.25470   0.85587   0.83762   1.000
    N191    N    0.75468   0.35587   0.83762   1.000
    N192    N    0.75468   0.85587   0.83762   1.000
    N193    N    0.16280   0.31549   0.83787   1.000
    N194    N    0.16281   0.81550   0.83787   1.000
    N195    N    0.66279   0.31549   0.83787   1.000
    N196    N    0.66279   0.81550   0.83787   1.000
    N197    N    0.41888   0.07670   0.66288   1.000
    N198    N    0.41888   0.57670   0.66288   1.000
    N199    N    0.91885   0.07670   0.66280   1.000
    N200    N    0.91886   0.57670   0.66288   1.000
    N201    N    0.40861   0.00723   0.66284   1.000
    N202    N    0.40861   0.50723   0.66284   1.000
    N203    N    0.90858   0.00723   0.66284   1.000
    N204    N    0.90858   0.50723   0.66284   1.000
    N205    N    0.26718   0.35039   0.76244   1.000
    N206    N    0.26718   0.85040   0.76244   1.000
    N207    N    0.76716   0.35040   0.76244   1.000
    N208    N    0.76716   0.85040   0.76244   1.000
    N209    N    0.42486   0.00240   0.73805   1.000
    N210    N    0.42486   0.50240   0.73805   1.000
    N211    N    0.92484   0.00240   0.73805   1.000
    N212    N    0.92484   0.50240   0.73805   1.000
    N213    N    0.05821   0.38128   0.26182   1.000
    N214    N    0.05821   0.88128   0.26182   1.000
    N215    N    0.55819   0.38128   0.26182   1.000
    N216    N    0.55819   0.88128   0.26182   1.000
    N217    N    0.38676   0.21725   0.23714   1.000
    N218    N    0.38676   0.71725   0.23714   1.000
    N219    N    0.88674   0.21725   0.23714   1.000
    N220    N    0.88674   0.71725   0.23714   1.000
    N221    N    0.24529   0.14413   0.16234   1.000
    N222    N    0.24528   0.64414   0.16234   1.000
    N223    N    0.74527   0.14413   0.16234   1.000
    N224    N    0.74527   0.64413   0.16234   1.000
    N225    N    0.33718   0.18451   0.16210   1.000
    N226    N    0.33718   0.68451   0.16210   1.000
    N227    N    0.83716   0.18451   0.16210   1.000
    N228    N    0.83716   0.68451   0.16210   1.000
    N229    N    0.09138   0.99277   0.33712   1.000
    N230    N    0.59135   0.49277   0.33712   1.000
    N231    N    0.59135   0.99277   0.33712   1.000
    N232    N    0.23281   0.14960   0.23752   1.000
    N233    N    0.23281   0.64961   0.23752   1.000
    N234    N    0.73279   0.14961   0.23752   1.000
    N235    N    0.73279   0.64961   0.23752   1.000
    N236    N    0.07512   0.49760   0.26191   1.000
    N237    N    0.07512   0.99760   0.26190   1.000
    N238    N    0.57510   0.49760   0.26191   1.000
    N239    N    0.57511   0.99760   0.26190   1.000
loop_
    _geom_bond_atom_site_label_1
    _geom_bond_atom_site_label_2
    _geom_bond_distance
    _geom_bond_site_symmetry_2
    _ccdc_geom_bond_type
    C137   C149      1.39015      .   S
    C137   C135      1.40224  1_454   S
    C137   H32       1.08864  1_554   S
    C138   C150      1.39015      .   S
    C138   C136      1.40223  1_454   S
    C138   H33       1.08864  1_554   S
    C139   C151      1.39015      .   S
    C139   C133      1.40207  1_554   S
    C139   H34       1.08864  1_554   S
    C140   C152      1.39015      .   S
    C140   C134      1.40207  1_554   S
    C140   H35       1.08891  1_554   S
    C142   C146      1.39013      .   S
    C142   C134      1.40256  1_554   S
    C142   H37       1.08843  1_554   S
    C141   C145      1.39013      .   S
    C141   C133      1.40254  1_554   S
    C141   H36       1.08845  1_554   S
    C143   C147      1.39013      .   S
    C143   C135      1.40253  1_554   S
    C143   H38       1.08844  1_554   S
    C144   C148      1.39013      .   S
    C144   C136      1.40254  1_554   S
    C144   H39       1.08845  1_554   S
    H7     C79       1.08840  1_554   S
    H6     C78       1.08840  1_554   S
    H5     C77       1.08840  1_554   S
    H4     C76       1.08840  1_554   S
    H0     C72       1.08865  1_554   S
    H1     C73       1.08866  1_554   S
    H2     C74       1.08903  1_554   S
    H3     C75       1.08866  1_554   S
    C71    C79       1.40256  1_554   S
    C71    C73       1.40210  1_554   S
    C70    C78       1.40255  1_554   S
    C70    C72       1.40212  1_554   S
    C68    C76       1.40253  1_554   S
    C68    C74       1.40241  1_454   S
    C69    C77       1.40254  1_554   S
    C69    C75       1.40227  1_454   S
    C151   H46       1.08576      .   S
    C151   C131      1.40647      .   S
    C150   H45       0.98149  1_565   S
    C150   C130      1.40648      .   S
    C152   H47       0.98531  1_565   S
    C152   C132      1.40647      .   S
    C149   H44       1.08872      .   S
    C149   C129      1.40647      .   S
    C145   H40       1.08884      .   S
    C145   C131      1.40640      .   S
    C146   H41       1.08885      .   S
    C146   C132      1.40640      .   S
    C147   H42       1.08883      .   S
    C147   C129      1.40657  1_655   S
    C148   H43       1.08884      .   S
    C148   C130      1.40656  1_655   S
    C130   C154      1.46398      .   S
    C131   C155      1.46381      .   S
    C132   C156      1.46398      .   S
    C129   C153      1.46381      .   S
    N228   N224      1.30319      .   S
    N228   N220      1.36570      .   S
    N227   N223      1.30318      .   S
    N227   N219      1.36570      .   S
    N226   N222      1.30318      .   S
    N226   N218      1.36570      .   S
    N225   N221      1.30318      .   S
    N225   N217      1.36570      .   S
    N224   N235      1.36576      .   S
    N223   N234      1.36576      .   S
    N222   N233      1.36576      .   S
    N221   N232      1.36576      .   S
    C153   N213      1.35060      .   S
    C153   N236      1.35045      .   S
    C155   N215      1.35058      .   S
    C155   N238      1.35047      .   S
    C156   N216      1.35046      .   S
    C156   N239      1.35032      .   S
    C154   N214      1.35046      .   S
    C154   N237      1.35032      .   S
    N220   C160      1.34819      .   S
    N219   C159      1.34820      .   S
    N218   C158      1.34819      .   S
    N217   C157      1.34819      .   S
    N232   C157      1.34808      .   S
    N233   C158      1.34808      .   S
    N234   C159      1.34808      .   S
    N235   C160      1.34809      .   S
    N216   N111      1.36789      .   S
    N215   N110      1.36789      .   S
    N214   N109      1.36789      .   S
    N213   N108      1.36790      .   S
    N237   N229      1.36787      .   S
    N239   N231      1.36787      .   S
    N236   N112      1.36769      .   S
    N238   N230      1.36769      .   S
    C160   C180      1.46369      .   S
    C159   C179      1.46369      .   S
    C158   C178      1.46369      .   S
    C157   C177      1.46369      .   S
    N108   N112      1.30385      .   S
    N109   N229      1.30387      .   S
    N110   N230      1.30387      .   S
    N111   N231      1.30387      .   S
    C177   C81       1.40583      .   S
    C177   C169      1.40559      .   S
    C178   C82       1.40583      .   S
    C178   C170      1.40559      .   S
    C179   C83       1.40581      .   S
    C179   C171      1.40561      .   S
    C180   C176      1.40583      .   S
    C180   C172      1.40508      .   S
    H63    C176      1.08912      .   S
    H62    C83       1.08914      .   S
    H61    C82       1.08914      .   S
    H60    C81       1.08915      .   S
    H58    C171      1.08922      .   S
    H59    C172      1.08905      .   S
    H56    C169      1.08922      .   S
    H57    C170      1.08922      .   S
    C81    C165      1.39017      .   S
    C82    C166      1.39016      .   S
    C83    C167      1.39017      .   S
    C176   C168      1.39016      .   S
    C172   C164      1.39096      .   S
    C171   C163      1.39028      .   S
    C169   C161      1.39028      .   S
    C170   C162      1.39028      .   S
    C118   C101      1.40298      .   S
    C118   C105      1.40421      .   S
    C119   C102      1.40298      .   S
    C119   C106      1.40421      .   S
    C120   C103      1.40299      .   S
    C120   C107      1.40420      .   S
    C117   C100      1.40218      .   S
    C117   C104      1.40200      .   S
    H17    C101      1.08854      .   S
    H18    C102      1.08853      .   S
    H19    C103      1.08855      .   S
    H16    C100      1.08854      .   S
    H20    C104      1.08858      .   S
    H23    C107      1.08849      .   S
    H21    C105      1.08849      .   S
    H22    C106      1.08849      .   S
    C168   H55       1.08859      .   S
    C168   C80       1.40200      .   S
    C167   H54       1.08858      .   S
    C167   C175      1.40201      .   S
    C166   H53       1.08858      .   S
    C166   C174      1.40200      .   S
    C165   H52       1.08858      .   S
    C165   C173      1.40201      .   S
    C164   H51       1.08867      .   S
    C164   C80       1.40218      .   S
    C163   H50       1.08867      .   S
    C163   C175      1.40218      .   S
    C162   H49       1.08867      .   S
    C162   C174      1.40218      .   S
    C161   H48       1.08867      .   S
    C161   C173      1.40218      .   S
    C102   C115      1.39028      .   S
    C103   C116      1.39028      .   S
    C100   C113      1.39028      .   S
    C101   C114      1.39028      .   S
    C107   C124      1.38931      .   S
    C106   C123      1.39051      .   S
    C105   C122      1.39051      .   S
    C104   C121      1.39016      .   S
    C113   H24       1.08920      .   S
    C113   C125      1.40574      .   S
    C114   H25       1.08922      .   S
    C114   C126      1.40572      .   S
    C115   H26       1.08922      .   S
    C115   C127      1.40572      .   S
    C116   H27       1.08920      .   S
    C116   C128      1.40573      .   S
    C124   H31       1.09004      .   S
    C124   C128      1.40617      .   S
    C121   H28       1.08914      .   S
    C121   C125      1.40587      .   S
    C122   H29       1.08914      .   S
    C122   C126      1.40587      .   S
    C123   H30       1.08915      .   S
    C123   C127      1.40587      .   S
    C125   C96       1.46369      .   S
    C126   C97       1.46369      .   S
    C127   C98       1.46369      .   S
    C128   C99       1.46369      .   S
    N199   N203      1.30421      .   S
    N199   N183      1.36850      .   S
    N202   N198      1.30386      .   S
    N202   N210      1.36769      .   S
    N201   N197      1.30387      .   S
    N201   N209      1.36769      .   S
    N203   N211      1.36769      .   S
    N204   N200      1.30385      .   S
    N204   N212      1.36770      .   S
    N200   N184      1.36790      .   S
    N198   N182      1.36790      .   S
    N197   N181      1.36790      .   S
    C97    N206      1.34802      .   S
    C97    N186      1.34820      .   S
    C99    N208      1.34802      .   S
    C99    N188      1.34819      .   S
    C98    N207      1.34801      .   S
    C98    N187      1.34819      .   S
    C96    N205      1.34802      .   S
    C96    N185      1.34820      .   S
    N212   C95       1.35045      .   S
    N211   C94       1.35046      .   S
    N210   C93       1.35046      .   S
    N209   C92       1.35046      .   S
    N183   C94       1.35113      .   S
    N184   C95       1.35061      .   S
    N182   C93       1.35059      .   S
    N181   C92       1.35059      .   S
    N205   N189      1.36576      .   S
    N206   N190      1.36577      .   S
    N207   N191      1.36576      .   S
    N208   N192      1.36576      .   S
    N185   N193      1.36570      .   S
    N186   N194      1.36570      .   S
    N188   N196      1.36570      .   S
    N187   N195      1.36570      .   S
    C92    C64       1.46381      .   S
    C93    C65       1.46381      .   S
    C94    C66       1.46381      .   S
    C95    C67       1.46381      .   S
    N190   N194      1.30323      .   S
    N189   N193      1.30322      .   S
    N191   N195      1.30322      .   S
    N192   N196      1.30322      .   S
    C64    C86       1.40639      .   S
    C64    C88       1.40648      .   S
    C65    C87       1.40640      .   S
    C65    C89       1.40648      .   S
    C66    C84       1.40656  1_655   S
    C66    C90       1.40647      .   S
    C67    C85       1.40656  1_655   S
    C67    C91       1.40647      .   S
    H8     C84       1.08872      .   S
    H9     C85       1.08871      .   S
    H10    C86       1.08873      .   S
    H11    C87       1.08872      .   S
    H12    C88       1.08872  1_565   S
    H13    C89       1.08872      .   S
    H14    C90       1.08872  1_565   S
    H15    C91       1.08873      .   S
    C87    C79       1.39030      .   S
    C86    C78       1.39030      .   S
    C85    C77       1.39030      .   S
    C84    C76       1.39030      .   S
    C91    C75       1.39015      .   S
    C90    C74       1.38963      .   S
    C89    C73       1.39015      .   S
    C88    C72       1.39015      .   S
