# CIF file generated by openbabel 2.4.90, see http://openbabel.sf.net
data_I
_chemical_name_common ''
_cell_length_a 13.928
_cell_length_b 19.233
_cell_length_c 17.934
_cell_angle_alpha 102.2
_cell_angle_beta 96.875
_cell_angle_gamma 105.929
_space_group_name_H-M_alt 'P 1'
_space_group_name_Hall 'P 1'
loop_
    _symmetry_equiv_pos_as_xyz
    x,y,z
loop_
    _atom_site_label
    _atom_site_type_symbol
    _atom_site_fract_x
    _atom_site_fract_y
    _atom_site_fract_z
    _atom_site_occupancy
    Zr0     Zr   0.03693   0.27154   0.24991   1.000
    Zr1     Zr   0.03693   0.77154   0.24991   1.000
    Zr2     Zr   0.53692   0.27154   0.24991   1.000
    Zr3     Zr   0.53692   0.77154   0.24991   1.000
    Zr4     Zr   0.08873   0.10140   0.25017   1.000
    Zr5     Zr   0.08873   0.60140   0.25017   1.000
    Zr6     Zr   0.58871   0.10140   0.25017   1.000
    Zr7     Zr   0.58871   0.60140   0.25017   1.000
    Zr8     Zr   0.46304   0.22846   0.75000   1.000
    Zr9     Zr   0.46305   0.72846   0.75000   1.000
    Zr10    Zr   0.96303   0.22846   0.75000   1.000
    Zr11    Zr   0.96303   0.72847   0.75000   1.000
    Zr12    Zr   0.41125   0.39860   0.74900   1.000
    Zr13    Zr   0.41126   0.89860   0.74980   1.000
    Zr14    Zr   0.91123   0.39860   0.74900   1.000
    Zr15    Zr   0.91124   0.89860   0.74900   1.000
    Zr16    Zr   0.03014   0.15392   0.11867   1.000
    Zr17    Zr   0.03014   0.65392   0.11867   1.000
    Zr18    Zr   0.53012   0.15392   0.11867   1.000
    Zr19    Zr   0.53012   0.65392   0.11867   1.000
    Zr20    Zr   0.09591   0.21916   0.38276   1.000
    Zr21    Zr   0.09591   0.71916   0.38276   1.000
    Zr22    Zr   0.59588   0.21916   0.38276   1.000
    Zr23    Zr   0.59588   0.71916   0.38276   1.000
    Zr24    Zr   0.46984   0.34608   0.88129   1.000
    Zr25    Zr   0.46985   0.84608   0.88129   1.000
    Zr26    Zr   0.96982   0.34608   0.88129   1.000
    Zr27    Zr   0.96983   0.84609   0.88129   1.000
    Zr28    Zr   0.40408   0.28084   0.61721   1.000
    Zr29    Zr   0.40408   0.78085   0.61721   1.000
    Zr30    Zr   0.90406   0.28084   0.61721   1.000
    Zr31    Zr   0.90406   0.78085   0.61721   1.000
    Zr32    Zr   0.00551   0.10152   0.15310   1.000
    Zr33    Zr   0.00551   0.60152   0.15310   1.000
    Zr34    Zr   0.50549   0.10152   0.15312   1.000
    Zr35    Zr   0.50549   0.60152   0.15312   1.000
    Zr36    Zr   0.07202   0.22326   0.15303   1.000
    Zr37    Zr   0.07202   0.72327   0.15300   1.000
    Zr38    Zr   0.57200   0.22326   0.15303   1.000
    Zr39    Zr   0.57200   0.72327   0.15303   1.000
    Zr40    Zr   0.11749   0.27121   0.34768   1.000
    Zr41    Zr   0.11749   0.77121   0.34768   1.000
    Zr42    Zr   0.61747   0.27121   0.34768   1.000
    Zr43    Zr   0.61747   0.77121   0.34768   1.000
    Zr44    Zr   0.05763   0.14949   0.34888   1.000
    Zr45    Zr   0.05763   0.64950   0.34888   1.000
    Zr46    Zr   0.55761   0.14949   0.34888   1.000
    Zr47    Zr   0.55761   0.64950   0.34888   1.000
    Zr48    Zr   0.49447   0.39848   0.84684   1.000
    Zr49    Zr   0.49448   0.89849   0.84684   1.000
    Zr50    Zr   0.99445   0.39849   0.84684   1.000
    Zr51    Zr   0.99445   0.89849   0.84684   1.000
    Zr52    Zr   0.42796   0.27674   0.84694   1.000
    Zr53    Zr   0.42796   0.77674   0.84694   1.000
    Zr54    Zr   0.92794   0.27674   0.84694   1.000
    Zr55    Zr   0.92795   0.77674   0.84694   1.000
    Zr56    Zr   0.38249   0.22879   0.65229   1.000
    Zr57    Zr   0.38250   0.72879   0.65229   1.000
    Zr58    Zr   0.88248   0.22879   0.65229   1.000
    Zr59    Zr   0.88248   0.72879   0.65229   1.000
    Zr60    Zr   0.44235   0.35051   0.65108   1.000
    Zr61    Zr   0.44236   0.85051   0.65108   1.000
    Zr62    Zr   0.94233   0.35051   0.65108   1.000
    Zr63    Zr   0.94234   0.85051   0.65108   1.000
    O64     O    0.55106   0.18859   0.13585   1.000
    O65     O    0.51781   0.12772   0.13590   1.000
    O66     O    0.55106   0.68859   0.13585   1.000
    O67     O    0.51781   0.62772   0.13590   1.000
    O68     O    0.05108   0.68859   0.13584   1.000
    O69     O    0.01783   0.62772   0.13588   1.000
    O70     O    0.05108   0.18859   0.13585   1.000
    O71     O    0.01783   0.12772   0.13588   1.000
    O72     O    0.05447   0.74740   0.20145   1.000
    O73     O    0.05448   0.24740   0.20147   1.000
    O74     O    0.55446   0.74740   0.20147   1.000
    O75     O    0.55446   0.24740   0.20147   1.000
    O76     O    0.04712   0.10146   0.20164   1.000
    O77     O    0.04712   0.60146   0.20164   1.000
    O78     O    0.54710   0.60146   0.20165   1.000
    O79     O    0.54710   0.10146   0.20165   1.000
    O80     O    0.07721   0.77138   0.29879   1.000
    O81     O    0.57720   0.27138   0.29879   1.000
    O82     O    0.07721   0.27138   0.29879   1.000
    O83     O    0.57720   0.77138   0.29879   1.000
    O84     O    0.07318   0.62545   0.29953   1.000
    O85     O    0.57316   0.12545   0.29953   1.000
    O86     O    0.57316   0.62545   0.29953   1.000
    O87     O    0.07318   0.12545   0.29953   1.000
    O88     O    0.60668   0.74519   0.36522   1.000
    O89     O    0.60668   0.24518   0.36522   1.000
    O90     O    0.10670   0.74519   0.36522   1.000
    O91     O    0.10670   0.24518   0.36522   1.000
    O92     O    0.57675   0.68433   0.36582   1.000
    O93     O    0.07677   0.18433   0.36582   1.000
    O94     O    0.07677   0.68433   0.36582   1.000
    O95     O    0.57675   0.18432   0.36582   1.000
    O96     O    0.42322   0.31568   0.63415   1.000
    O97     O    0.39328   0.25482   0.63475   1.000
    O98     O    0.42322   0.81568   0.63415   1.000
    O99     O    0.39329   0.75482   0.63475   1.000
    O100    O    0.92319   0.31568   0.63415   1.000
    O101    O    0.89327   0.25482   0.63475   1.000
    O102    O    0.92320   0.81568   0.63415   1.000
    O103    O    0.89327   0.75482   0.63475   1.000
    O104    O    0.92679   0.87456   0.70004   1.000
    O105    O    0.42680   0.37455   0.70004   1.000
    O106    O    0.42681   0.87456   0.70044   1.000
    O107    O    0.92678   0.37455   0.70004   1.000
    O108    O    0.42277   0.22862   0.70114   1.000
    O109    O    0.42277   0.72863   0.70114   1.000
    O110    O    0.92275   0.22863   0.70114   1.000
    O111    O    0.92276   0.72863   0.70114   1.000
    O112    O    0.45286   0.39854   0.79792   1.000
    O113    O    0.95284   0.39854   0.79792   1.000
    O114    O    0.95285   0.89854   0.79792   1.000
    O115    O    0.45287   0.89854   0.79832   1.000
    O116    O    0.44550   0.25260   0.79847   1.000
    O117    O    0.94549   0.75260   0.79847   1.000
    O118    O    0.94549   0.25260   0.79847   1.000
    O119    O    0.44551   0.75260   0.79847   1.000
    O120    O    0.48215   0.37228   0.86406   1.000
    O121    O    0.48216   0.87229   0.86406   1.000
    O122    O    0.98213   0.37228   0.86406   1.000
    O123    O    0.98214   0.87229   0.86406   1.000
    O124    O    0.94889   0.81141   0.86412   1.000
    O125    O    0.44891   0.81141   0.86412   1.000
    O126    O    0.94888   0.31141   0.86412   1.000
    O127    O    0.44890   0.31141   0.86412   1.000
    N128    N    0.42788   0.05540   0.71723   1.000
    O129    O    0.42297   0.00295   0.73058   1.000
    O130    O    0.44014   0.11450   0.73065   1.000
    O131    O    0.50347   0.12810   0.01331   1.000
    N132    N    0.19535   0.32188   0.78349   1.000
    O133    O    0.11674   0.28874   0.76995   1.000
    O134    O    0.26728   0.34819   0.76960   1.000
    O135    O    0.12187   0.24619   0.48804   1.000
    N136    N    0.69533   0.32188   0.78349   1.000
    O137    O    0.76726   0.34819   0.76960   1.000
    O138    O    0.61673   0.28874   0.76995   1.000
    O139    O    0.62185   0.24619   0.48798   1.000
    N140    N    0.92785   0.05540   0.71721   1.000
    O141    O    0.92295   0.00295   0.73037   1.000
    O142    O    0.94012   0.11450   0.73063   1.000
    O143    O    0.00348   0.12810   0.01331   1.000
    N144    N    0.57209   0.94460   0.28273   1.000
    O145    O    0.57700   0.99705   0.26938   1.000
    O146    O    0.55982   0.88551   0.26930   1.000
    O147    O    0.49650   0.87144   0.98665   1.000
    N148    N    0.30463   0.17813   0.21648   1.000
    O149    O    0.38324   0.21126   0.23000   1.000
    O150    O    0.23270   0.15181   0.23016   1.000
    O151    O    0.37811   0.25381   0.51192   1.000
    N152    N    0.92786   0.55541   0.71723   1.000
    O153    O    0.94013   0.61450   0.73065   1.000
    O154    O    0.92295   0.50295   0.73038   1.000
    O155    O    0.00348   0.62810   0.01331   1.000
    N156    N    0.19535   0.82188   0.78349   1.000
    O157    O    0.11674   0.78874   0.76995   1.000
    O158    O    0.26729   0.84819   0.76980   1.000
    O159    O    0.12187   0.74619   0.48798   1.000
    N160    N    0.07211   0.94460   0.28273   1.000
    O161    O    0.05984   0.88550   0.26930   1.000
    O162    O    0.07702   0.99705   0.26938   1.000
    O163    O    0.99649   0.87144   0.98661   1.000
    N164    N    0.80461   0.17813   0.21648   1.000
    O165    O    0.73268   0.15181   0.23016   1.000
    O166    O    0.88322   0.21126   0.23000   1.000
    O167    O    0.87809   0.25381   0.51192   1.000
    N168    N    0.69533   0.82188   0.78349   1.000
    O169    O    0.61673   0.78874   0.76995   1.000
    O170    O    0.76727   0.84819   0.76960   1.000
    O171    O    0.62185   0.74619   0.48798   1.000
    N172    N    0.42788   0.55540   0.71723   1.000
    O173    O    0.42297   0.50295   0.73038   1.000
    O174    O    0.44015   0.61450   0.73065   1.000
    O175    O    0.50347   0.62810   0.01331   1.000
    N176    N    0.30463   0.67813   0.21648   1.000
    O177    O    0.23270   0.65182   0.23016   1.000
    O178    O    0.38324   0.71126   0.23000   1.000
    O179    O    0.37812   0.75381   0.51192   1.000
    N180    N    0.07211   0.44460   0.28273   1.000
    O181    O    0.05984   0.38550   0.26930   1.000
    O182    O    0.07702   0.49705   0.26938   1.000
    O183    O    0.99649   0.37190   0.98665   1.000
    N184    N    0.57209   0.44460   0.28273   1.000
    O185    O    0.55982   0.38550   0.26930   1.000
    O186    O    0.57700   0.49705   0.26938   1.000
    O187    O    0.49650   0.37190   0.98661   1.000
    N188    N    0.80461   0.67813   0.21648   1.000
    O189    O    0.88322   0.71126   0.23000   1.000
    O190    O    0.73268   0.65182   0.23016   1.000
    O191    O    0.87809   0.75381   0.51192   1.000
loop_
    _geom_bond_atom_site_label_1
    _geom_bond_atom_site_label_2
    _geom_bond_distance
    _geom_bond_site_symmetry_2
    _ccdc_geom_bond_type
    Zr18   O64       0.63999      .   S
    Zr38   O64       0.63999      .   S
    Zr18   O65       0.64018      .   S
    Zr34   O65       0.64018      .   S
    Zr19   O66       0.63999      .   S
    Zr39   O66       0.63999      .   S
    Zr19   O67       0.64018      .   S
    Zr35   O67       0.64018      .   S
    Zr17   O68       0.63994      .   S
    Zr37   O68       0.63994      .   S
    Zr17   O69       0.64004      .   S
    Zr33   O69       0.64004      .   S
    Zr16   O70       0.63999      .   S
    Zr36   O70       0.63999      .   S
    Zr16   O71       0.64005      .   S
    Zr32   O71       0.64005      .   S
    Zr37   O72       0.98637      .   S
    Zr1    O72       0.98637      .   S
    Zr36   O73       0.98616      .   S
    Zr0    O73       0.98616      .   S
    Zr39   O74       0.98616      .   S
    Zr3    O74       0.98616      .   S
    Zr38   O75       0.98616      .   S
    Zr2    O75       0.98616      .   S
    Zr32   O76       0.98666      .   S
    Zr4    O76       0.98666      .   S
    Zr33   O77       0.98666      .   S
    Zr5    O77       0.98666      .   S
    Zr35   O78       0.98650      .   S
    Zr7    O78       0.98650      .   S
    Zr34   O79       0.98650      .   S
    Zr6    O79       0.98650      .   S
    Zr1    O80       0.98372      .   S
    Zr41   O80       0.98372      .   S
    Zr2    O81       0.98371      .   S
    Zr42   O81       0.98371      .   S
    Zr0    O82       0.98372      .   S
    Zr40   O82       0.98372      .   S
    Zr3    O83       0.98372      .   S
    Zr43   O83       0.98372      .   S
    Zr5    O84       0.98597      .   S
    Zr45   O84       0.98597      .   S
    Zr6    O85       0.98597      .   S
    Zr46   O85       0.98597      .   S
    Zr7    O86       0.98596      .   S
    Zr47   O86       0.98596      .   S
    Zr4    O87       0.98596      .   S
    Zr44   O87       0.98596      .   S
    Zr43   O88       0.63928      .   S
    Zr23   O88       0.63928      .   S
    Zr42   O89       0.63929      .   S
    Zr22   O89       0.63929      .   S
    Zr41   O90       0.63928      .   S
    Zr21   O90       0.63928      .   S
    Zr40   O91       0.63929      .   S
    Zr20   O91       0.63929      .   S
    Zr47   O92       0.63931      .   S
    Zr23   O92       0.63931      .   S
    Zr44   O93       0.63931      .   S
    Zr20   O93       0.63931      .   S
    Zr45   O94       0.63932      .   S
    Zr21   O94       0.63932      .   S
    Zr46   O95       0.63931      .   S
    Zr22   O95       0.63931      .   S
    Zr28   O96       0.63930      .   S
    Zr60   O96       0.63930      .   S
    Zr28   O97       0.63929      .   S
    Zr56   O97       0.63929      .   S
    Zr29   O98       0.63929      .   S
    Zr61   O98       0.63929      .   S
    Zr29   O99       0.63929      .   S
    Zr57   O99       0.63929      .   S
    Zr30   O100      0.63930      .   S
    Zr62   O100      0.63930      .   S
    Zr30   O101      0.63929      .   S
    Zr58   O101      0.63929      .   S
    Zr31   O102      0.63930      .   S
    Zr63   O102      0.63930      .   S
    Zr31   O103      0.63929      .   S
    Zr59   O103      0.63929      .   S
    Zr63   O104      0.98013      .   S
    Zr15   O104      0.98013      .   S
    Zr60   O105      0.98013      .   S
    Zr12   O105      0.98013      .   S
    Zr61   O106      0.98604      .   S
    Zr13   O106      0.98604      .   S
    Zr62   O107      0.98013      .   S
    Zr14   O107      0.98013      .   S
    Zr56   O108      0.98327      .   S
    Zr8    O108      0.98327      .   S
    Zr57   O109      0.98326      .   S
    Zr9    O109      0.98326      .   S
    Zr58   O110      0.98327      .   S
    Zr10   O110      0.98327      .   S
    Zr59   O111      0.98327      .   S
    Zr11   O111      0.98327      .   S
    Zr12   O112      0.99227      .   S
    Zr48   O112      0.99227      .   S
    Zr14   O113      0.99227      .   S
    Zr50   O113      0.99227      .   S
    Zr15   O114      0.99227      .   S
    Zr51   O114      0.99227      .   S
    Zr13   O115      0.98643      .   S
    Zr49   O115      0.98643      .   S
    Zr8    O116      0.98660      .   S
    Zr52   O116      0.98660      .   S
    Zr11   O117      0.98659      .   S
    Zr55   O117      0.98659      .   S
    Zr10   O118      0.98660      .   S
    Zr54   O118      0.98660      .   S
    Zr9    O119      0.98660      .   S
    Zr53   O119      0.98660      .   S
    Zr48   O120      0.64018      .   S
    Zr24   O120      0.64018      .   S
    Zr49   O121      0.64017      .   S
    Zr25   O121      0.64017      .   S
    Zr50   O122      0.64018      .   S
    Zr26   O122      0.64018      .   S
    Zr51   O123      0.64017      .   S
    Zr27   O123      0.64017      .   S
    Zr55   O124      0.63997      .   S
    Zr27   O124      0.63997      .   S
    Zr53   O125      0.63997      .   S
    Zr25   O125      0.63997      .   S
    Zr54   O126      0.63997      .   S
    Zr26   O126      0.63997      .   S
    Zr52   O127      0.63997      .   S
    Zr24   O127      0.63997      .   S
    N128   O129      1.07131      .   S
    Zr13   O129      2.07353  1_565   S
    N128   O130      1.07092      .   S
    Zr8    O130      2.07237      .   S
    N128   O131      5.09643  1_556   S
    Zr18   O131      1.81356      .   S
    N132   O133      1.07323      .   S
    Zr10   O133      2.08189  1_655   S
    N132   O134      1.07542      .   S
    Zr12   O134      2.08786      .   S
    N132   O135      5.08576      .   S
    Zr20   O135      1.81233      .   S
    N136   O137      1.07541      .   S
    Zr14   O137      2.08784      .   S
    N136   O138      1.07314      .   S
    Zr8    O138      2.08161      .   S
    N136   O139      5.08676      .   S
    Zr22   O139      1.81134      .   S
    N140   O141      1.06987      .   S
    Zr15   O141      2.06956  1_565   S
    N140   O142      1.07092      .   S
    Zr10   O142      2.07235      .   S
    N140   O143      5.09682  1_656   S
    Zr16   O143      1.81358      .   S
    N144   O145      1.07131      .   S
    Zr6    O145      2.07347  1_545   S
    N144   O146      1.07092      .   S
    Zr3    O146      2.07233      .   S
    N144   O147      5.09635  1_554   S
    Zr25   O147      1.81366      .   S
    N148   O149      1.07314      .   S
    Zr2    O149      2.08168      .   S
    N148   O150      1.07382      .   S
    Zr4    O150      2.08371      .   S
    N148   O151      5.08572      .   S
    Zr28   O151      1.81244      .   S
    N152   O153      1.07092      .   S
    Zr11   O153      2.07238      .   S
    N152   O154      1.06979      .   S
    Zr14   O154      2.06953      .   S
    N152   O155      5.09643  1_656   S
    Zr17   O155      1.81356      .   S
    N156   O157      1.07323      .   S
    Zr11   O157      2.08191  1_655   S
    N156   O158      1.07384      .   S
    Zr13   O158      2.08370      .   S
    N156   O159      5.08676      .   S
    Zr21   O159      1.81133      .   S
    N160   O161      1.07091      .   S
    Zr1    O161      2.07232      .   S
    N160   O162      1.07132      .   S
    Zr4    O162      2.07348  1_545   S
    N160   O163      5.09702  1_454   S
    Zr27   O163      1.81299      .   S
    N164   O165      1.07383      .   S
    Zr6    O165      2.08373      .   S
    N164   O166      1.07324      .   S
    Zr0    O166      2.08196  1_455   S
    N164   O167      5.08572      .   S
    Zr30   O167      1.81244      .   S
    N168   O169      1.07314      .   S
    Zr9    O169      2.08162      .   S
    N168   O170      1.07542      .   S
    Zr15   O170      2.08786      .   S
    N168   O171      5.08682      .   S
    Zr23   O171      1.81127      .   S
    N172   O173      1.06979      .   S
    Zr12   O173      2.06952      .   S
    N172   O174      1.07092      .   S
    Zr9    O174      2.07237      .   S
    N172   O175      5.09643  1_556   S
    Zr19   O175      1.81356      .   S
    N176   O177      1.07383      .   S
    Zr5    O177      2.08371      .   S
    N176   O178      1.07314      .   S
    Zr3    O178      2.08167      .   S
    N176   O179      5.08572      .   S
    Zr29   O179      1.81244      .   S
    N180   O181      1.07091      .   S
    Zr0    O181      2.07232      .   S
    N180   O182      1.07131      .   S
    Zr5    O182      2.07355      .   S
    N180   O183      5.09636  1_454   S
    Zr26   O183      1.81363      .   S
    N184   O185      1.07091      .   S
    Zr2    O185      2.07232      .   S
    N184   O186      1.07131      .   S
    Zr7    O186      2.07354      .   S
    N184   O187      5.09704  1_554   S
    Zr24   O187      1.81295      .   S
    N188   O189      1.07324      .   S
    Zr1    O189      2.08196  1_455   S
    N188   O190      1.07384      .   S
    Zr7    O190      2.08373      .   S
    N188   O191      5.08569      .   S
    Zr31   O191      1.81248      .   S
