# CIF file generated by openbabel 2.4.90, see http://openbabel.sf.net
data_I
_chemical_name_common ''
_cell_length_a 13.928
_cell_length_b 19.233
_cell_length_c 17.934
_cell_angle_alpha 102.2
_cell_angle_beta 96.875
_cell_angle_gamma 105.929
_space_group_name_H-M_alt 'P 1'
_space_group_name_Hall 'P 1'
loop_
    _symmetry_equiv_pos_as_xyz
    x,y,z
loop_
    _atom_site_label
    _atom_site_type_symbol
    _atom_site_fract_x
    _atom_site_fract_y
    _atom_site_fract_z
    _atom_site_occupancy
    N0      N    0.42788   0.05540   0.71723   1.000
    N1      N    0.19535   0.32188   0.78349   1.000
    N2      N    0.69533   0.32188   0.78349   1.000
    N3      N    0.92785   0.05540   0.71721   1.000
    N4      N    0.57209   0.94460   0.28273   1.000
    N5      N    0.30463   0.17813   0.21648   1.000
    N6      N    0.92786   0.55541   0.71723   1.000
    N7      N    0.19535   0.82188   0.78349   1.000
    N8      N    0.07211   0.94460   0.28273   1.000
    N9      N    0.80461   0.17813   0.21648   1.000
    N10     N    0.69533   0.82188   0.78349   1.000
    N11     N    0.42788   0.55540   0.71723   1.000
    N12     N    0.30463   0.67813   0.21648   1.000
    N13     N    0.07211   0.44460   0.28273   1.000
    N14     N    0.57209   0.44460   0.28273   1.000
    N15     N    0.80461   0.67813   0.21648   1.000
    Zr16    Zr   0.56303   0.18644   0.25053   1.000
    O17     O    0.59244   0.21631   0.36926   1.000
    O18     O    0.53325   0.15727   0.13192   1.000
    O19     O    0.56142   0.28597   0.25991   1.000
    O20     O    0.47313   0.19885   0.24026   1.000
    O21     O    0.57001   0.09174   0.25995   1.000
    O22     O    0.64785   0.16913   0.24034   1.000
    Zr23    Zr   0.93692   0.81357   0.74933   1.000
    O24     O    0.02683   0.80116   0.75964   1.000
    O25     O    0.93852   0.71403   0.73999   1.000
    O26     O    0.90751   0.78369   0.63063   1.000
    O27     O    0.96671   0.84251   0.86797   1.000
    O28     O    0.85209   0.83088   0.75947   1.000
    O29     O    0.92993   0.90826   0.73985   1.000
    Zr30    Zr   0.43694   0.31356   0.74933   1.000
    O31     O    0.35211   0.33087   0.75947   1.000
    O32     O    0.42995   0.40826   0.73986   1.000
    O33     O    0.40752   0.28369   0.63063   1.000
    O34     O    0.46672   0.34273   0.86797   1.000
    O35     O    0.43854   0.21403   0.73999   1.000
    O36     O    0.52683   0.30115   0.75964   1.000
    Zr37    Zr   0.93692   0.31356   0.74933   1.000
    O38     O    0.90750   0.28369   0.63063   1.000
    O39     O    0.85209   0.33088   0.75947   1.000
    O40     O    0.92993   0.40826   0.73986   1.000
    O41     O    0.93852   0.21403   0.73998   1.000
    O42     O    0.02683   0.30115   0.75964   1.000
    O43     O    0.96670   0.34273   0.86799   1.000
    Zr44    Zr   0.56303   0.68644   0.25053   1.000
    O45     O    0.57001   0.59174   0.25996   1.000
    O46     O    0.64785   0.66913   0.24034   1.000
    O47     O    0.53325   0.65727   0.13192   1.000
    O48     O    0.59244   0.71631   0.36925   1.000
    O49     O    0.56142   0.78597   0.25991   1.000
    O50     O    0.47313   0.69885   0.24026   1.000
    Zr51    Zr   0.43694   0.81357   0.74943   1.000
    O52     O    0.42996   0.90826   0.74001   1.000
    O53     O    0.35211   0.83088   0.75962   1.000
    O54     O    0.46672   0.84250   0.86804   1.000
    O55     O    0.40753   0.78369   0.63068   1.000
    O56     O    0.43854   0.71403   0.74004   1.000
    O57     O    0.52684   0.80115   0.75969   1.000
    Zr58    Zr   0.06304   0.68644   0.25052   1.000
    O59     O    0.03326   0.65727   0.13192   1.000
    O60     O    0.09246   0.71632   0.36925   1.000
    O61     O    0.06144   0.78597   0.25991   1.000
    O62     O    0.97313   0.69885   0.24026   1.000
    O63     O    0.14787   0.66913   0.24034   1.000
    O64     O    0.07003   0.59174   0.25995   1.000
    Zr65    Zr   0.06304   0.18644   0.25052   1.000
    O66     O    0.07003   0.09174   0.25995   1.000
    O67     O    0.14787   0.16913   0.24034   1.000
    O68     O    0.06144   0.28597   0.25991   1.000
    O69     O    0.97313   0.19885   0.24026   1.000
    O70     O    0.09246   0.21631   0.36928   1.000
    O71     O    0.03326   0.15727   0.13192   1.000
loop_
    _geom_bond_atom_site_label_1
    _geom_bond_atom_site_label_2
    _geom_bond_distance
    _geom_bond_site_symmetry_2
    _ccdc_geom_bond_type
    Zr16   O17       2.04369      .   S
    N2     O17       7.13043      .   S
    Zr16   O18       2.04160      .   S
    N0     O18       7.13801  1_556   S
    Zr16   O19       1.89253      .   S
    N14    O19       2.95069      .   S
    Zr16   O20       1.33640      .   S
    N5     O20       2.24132      .   S
    Zr16   O21       1.89166      .   S
    N4     O21       2.95080  1_565   S
    Zr16   O22       1.33491      .   S
    N9     O22       2.24228      .   S
    Zr23   O24       1.33666  1_655   S
    N7     O24       2.24167      .   S
    Zr23   O25       1.89261      .   S
    N6     O25       2.95077      .   S
    Zr23   O26       2.04330      .   S
    N15    O26       7.12897      .   S
    Zr23   O27       2.04217      .   S
    N8     O27       7.13918  1_454   S
    Zr23   O28       1.33475      .   S
    N10    O28       2.24318      .   S
    Zr23   O29       1.89195      .   S
    N3     O29       2.95000  1_545   S
    Zr30   O31       1.33475      .   S
    N1     O31       2.24318      .   S
    Zr30   O32       1.89195      .   S
    N11    O32       2.94993      .   S
    Zr30   O33       2.04328      .   S
    N5     O33       7.12899      .   S
    Zr30   O34       2.04216      .   S
    N14    O34       7.13919  1_554   S
    Zr30   O35       1.89262      .   S
    N0     O35       2.95077      .   S
    Zr30   O36       1.33645      .   S
    N2     O36       2.24134      .   S
    Zr37   O38       2.04328      .   S
    N9     O38       7.12899      .   S
    Zr37   O39       1.33476      .   S
    N2     O39       2.24317      .   S
    Zr37   O40       1.89195      .   S
    N6     O40       2.94993      .   S
    Zr37   O41       1.89259      .   S
    N3     O41       2.95074      .   S
    Zr37   O42       1.33665  1_655   S
    N1     O42       2.24166      .   S
    Zr37   O43       2.04250      .   S
    N13    O43       7.13885  1_454   S
    Zr44   O45       1.89169      .   S
    N14    O45       2.95083      .   S
    Zr44   O46       1.33490      .   S
    N15    O46       2.24228      .   S
    Zr44   O47       2.04160      .   S
    N11    O47       7.13801  1_556   S
    Zr44   O48       2.04366      .   S
    N10    O48       7.13046      .   S
    Zr44   O49       1.89252      .   S
    N4     O49       2.95068      .   S
    Zr44   O50       1.33640      .   S
    N12    O50       2.24132      .   S
    Zr51   O52       1.89166      .   S
    N0     O52       2.95079  1_545   S
    Zr51   O53       1.33492      .   S
    N7     O53       2.24231      .   S
    Zr51   O54       2.04165      .   S
    N4     O54       7.13799  1_554   S
    Zr51   O55       2.04414      .   S
    N12    O55       7.12984      .   S
    Zr51   O56       1.89250      .   S
    N11    O56       2.95069      .   S
    Zr51   O57       1.33639      .   S
    N10    O57       2.24131      .   S
    Zr58   O59       2.04154      .   S
    N6     O59       7.13796  1_656   S
    Zr58   O60       2.04374      .   S
    N7     O60       7.13048      .   S
    Zr58   O61       1.89250      .   S
    N8     O61       2.95066      .   S
    Zr58   O62       1.33660  1_455   S
    N15    O62       2.24163      .   S
    Zr58   O63       1.33490      .   S
    N12    O63       2.24226      .   S
    Zr58   O64       1.89172      .   S
    N13    O64       2.95086      .   S
    Zr65   O66       1.89168      .   S
    N8     O66       2.95082  1_565   S
    Zr65   O67       1.33491      .   S
    N5     O67       2.24227      .   S
    Zr65   O68       1.89251      .   S
    N13    O68       2.95067      .   S
    Zr65   O69       1.33660  1_455   S
    N9     O69       2.24163      .   S
    Zr65   O70       2.04421      .   S
    N1     O70       7.12995      .   S
    Zr65   O71       2.04159      .   S
    N3     O71       7.13840  1_656   S
