# CIF file generated by openbabel 2.4.90, see http://openbabel.sf.net
data_I
_chemical_name_common ''
_cell_length_a 15.583
_cell_length_b 15.627
_cell_length_c 15.672
_cell_angle_alpha 68.747
_cell_angle_beta 74.069
_cell_angle_gamma 111.034
_space_group_name_H-M_alt 'P 1'
_space_group_name_Hall 'P 1'
loop_
    _symmetry_equiv_pos_as_xyz
    x,y,z
loop_
    _atom_site_label
    _atom_site_type_symbol
    _atom_site_fract_x
    _atom_site_fract_y
    _atom_site_fract_z
    _atom_site_occupancy
    H0      H    0.27348   0.71366   0.96774   1.000
    H1      H    0.28189   0.84059   0.91268   1.000
    H2      H    0.18033   0.73598   0.03770   1.000
    H3      H    0.49621   0.95561   0.16062   1.000
    H4      H    0.36065   0.89835   0.23646   1.000
    H5      H    0.42989   0.02105   0.11726   1.000
    H6      H    0.81976   0.78784   0.44000   1.000
    H7      H    0.74806   0.66125   0.55799   1.000
    H8      H    0.72737   0.76655   0.55419   1.000
    H9      H    0.38436   0.54555   0.45878   1.000
    H10     H    0.36472   0.60187   0.53765   1.000
    H11     H    0.36298   0.47952   0.58946   1.000
    H12     H    0.06195   0.74549   0.22793   1.000
    H13     H    0.94386   0.69795   0.21853   1.000
    H14     H    0.94623   0.72323   0.31950   1.000
    H15     H    0.04065   0.15995   0.00408   1.000
    H16     H    0.96005   0.09906   0.13884   1.000
    H17     H    0.90977   0.05121   0.06653   1.000
    H18     H    0.53187   0.75882   0.68030   1.000
    H19     H    0.58851   0.80507   0.75142   1.000
    H20     H    0.46288   0.78272   0.77227   1.000
    H21     H    0.33872   0.34455   0.11460   1.000
    H22     H    0.26283   0.40473   0.13257   1.000
    H23     H    0.38271   0.45405   0.13617   1.000
    H24     H    0.72653   0.28637   0.00000   1.000
    H25     H    0.71813   0.15944   0.08732   1.000
    H26     H    0.81968   0.26405   0.96227   1.000
    H27     H    0.50380   0.04442   0.83938   1.000
    H28     H    0.63936   0.10168   0.76354   1.000
    H29     H    0.57012   0.97898   0.88274   1.000
    H30     H    0.18025   0.21219   0.56000   1.000
    H31     H    0.25195   0.33877   0.44201   1.000
    H32     H    0.27264   0.23347   0.44582   1.000
    H33     H    0.61565   0.45448   0.54122   1.000
    H34     H    0.63530   0.39817   0.46235   1.000
    H35     H    0.63703   0.52051   0.41054   1.000
    H36     H    0.93806   0.25454   0.77200   1.000
    H37     H    0.05616   0.30208   0.78140   1.000
    H38     H    0.05378   0.27680   0.68051   1.000
    H39     H    0.95936   0.84008   0.99590   1.000
    H40     H    0.03995   0.90097   0.86110   1.000
    H41     H    0.09024   0.94882   0.93347   1.000
    H42     H    0.46815   0.24121   0.31965   1.000
    H43     H    0.41151   0.19496   0.24858   1.000
    H44     H    0.53713   0.21731   0.22770   1.000
    H45     H    0.66129   0.65549   0.88540   1.000
    H46     H    0.73718   0.59531   0.86743   1.000
    H47     H    0.61731   0.54598   0.86383   1.000
    C48     C    0.40160   0.88397   0.10313   1.000
    C49     C    0.32958   0.80807   0.03054   1.000
    C50     C    0.26265   0.77245   0.98460   1.000
    C51     C    0.42387   0.94353   0.15693   1.000
    C52     C    0.51357   0.61731   0.48180   1.000
    C53     C    0.66233   0.69380   0.47784   1.000
    C54     C    0.74408   0.72949   0.50903   1.000
    C55     C    0.40007   0.55725   0.51891   1.000
    C56     C    0.01757   0.00759   0.09770   1.000
    C57     C    0.02253   0.86355   0.17040   1.000
    C58     C    0.99215   0.75133   0.23700   1.000
    C59     C    0.98004   0.08382   0.07495   1.000
    C60     C    0.39646   0.49622   0.98542   1.000
    C61     C    0.46940   0.64036   0.83714   1.000
    C62     C    0.51576   0.75297   0.75560   1.000
    C63     C    0.34262   0.42055   0.09850   1.000
    C64     C    0.59841   0.11606   0.89687   1.000
    C65     C    0.67043   0.19196   0.96940   1.000
    C66     C    0.73736   0.22758   0.00000   1.000
    C67     C    0.57614   0.05650   0.84307   1.000
    C68     C    0.48644   0.38272   0.51818   1.000
    C69     C    0.33768   0.30623   0.52217   1.000
    C70     C    0.25593   0.27053   0.49097   1.000
    C71     C    0.59995   0.44278   0.48109   1.000
    C72     C    0.98244   0.99244   0.90220   1.000
    C73     C    0.97748   0.13648   0.82960   1.000
    C74     C    0.00786   0.24870   0.76221   1.000
    C75     C    0.01997   0.91621   0.92505   1.000
    C76     C    0.60355   0.50381   0.00000   1.000
    C77     C    0.53061   0.35967   0.16286   1.000
    C78     C    0.48425   0.24705   0.24440   1.000
    C79     C    0.65739   0.57948   0.90148   1.000
    N80     N    0.44668   0.82952   0.08526   1.000
    N81     N    0.32851   0.87344   0.06890   1.000
    N82     N    0.39987   0.78029   0.03957   1.000
    N83     N    0.58570   0.67200   0.38293   1.000
    N84     N    0.55860   0.62807   0.54390   1.000
    N85     N    0.68078   0.72168   0.38042   1.000
    N86     N    0.11681   0.03414   0.05260   1.000
    N87     N    0.95584   0.90102   0.17120   1.000
    N88     N    0.11990   0.94203   0.09983   1.000
    N89     N    0.41413   0.46892   0.91356   1.000
    N90     N    0.43103   0.60327   0.94055   1.000
    N91     N    0.46003   0.56111   0.81877   1.000
    N92     N    0.55333   0.17051   0.91470   1.000
    N93     N    0.67150   0.12659   0.93106   1.000
    N94     N    0.60014   0.21974   0.96043   1.000
    N95     N    0.41431   0.32803   0.61707   1.000
    N96     N    0.44141   0.37196   0.45610   1.000
    N97     N    0.31923   0.27835   0.61958   1.000
    N98     N    0.88320   0.96589   0.94740   1.000
    N99     N    0.04417   0.09901   0.82881   1.000
    N100    N    0.88011   0.05800   0.90017   1.000
    N101    N    0.58588   0.53111   0.08644   1.000
    N102    N    0.56898   0.39676   0.05945   1.000
    N103    N    0.53998   0.43892   0.18123   1.000
loop_
    _geom_bond_atom_site_label_1
    _geom_bond_atom_site_label_2
    _geom_bond_distance
    _geom_bond_site_symmetry_2
    _ccdc_geom_bond_type
    H24    C66       0.99189      .   S
    C66    H25       1.25927      .   S
    C66    H26       1.06505  1_554   S
    C66    C65       1.29582  1_554   S
    C76    N102      1.38009      .   S
    C76    N101      1.54645      .   S
    C76    C79       1.31880  1_554   S
    H15    C59       1.09570  1_455   S
    C49    N82       1.33788      .   S
    C49    N81       1.36287      .   S
    C49    C50       1.48396  1_554   S
    H2     C50       1.09915  1_554   S
    N82    N80       1.38564      .   S
    N86    C56       1.33777      .   S
    N86    N88       1.38531  1_545   S
    N102   C77       1.36318      .   S
    H17    C59       1.09709      .   S
    N81    C48       1.36994      .   S
    C59    C56       1.48162  1_655   S
    C59    H16       1.10056      .   S
    N80    C48       1.33773      .   S
    N101   N103      1.38543      .   S
    C56    N87       1.36983  1_445   S
    C63    H21       1.09565      .   S
    C63    H22       1.10064      .   S
    C63    H23       1.09753      .   S
    C63    C60       1.48162  1_554   S
    N88    C57       1.33760      .   S
    C48    C51       1.48173      .   S
    H5     C51       1.09686  1_545   S
    C51    H3        1.09572      .   S
    C51    H4        1.10056      .   S
    C77    N103      1.33780      .   S
    C77    C78       1.48394      .   S
    C57    N87       1.36306  1_455   S
    C57    C58       1.48147  1_455   S
    H13    C58       1.09090      .   S
    H44    C78       1.09930      .   S
    H12    C58       1.09886  1_455   S
    C58    H14       1.10972      .   S
    C78    H43       1.10007      .   S
    C78    H42       1.09775      .   S
    N85    N83       1.38550      .   S
    N85    C53       1.33805      .   S
    N83    C52       1.33751      .   S
    H35    C71       1.09704      .   S
    H6     C54       1.09779      .   S
    H31    C70       1.10009      .   S
    H32    C70       1.09918      .   S
    N96    C68       1.36960      .   S
    N96    C69       1.36325      .   S
    H9     C55       1.09578      .   S
    H34    C71       1.10055      .   S
    C53    C54       1.48404      .   S
    C53    N84       1.36323      .   S
    C71    C68       1.48181      .   S
    C71    H33       1.09576      .   S
    C52    C55       1.48177      .   S
    C52    N84       1.36986      .   S
    C70    C69       1.48416      .   S
    C70    H30       1.09779      .   S
    C54    H8        1.09928      .   S
    C54    H7        1.10010      .   S
    C68    N95       1.33773      .   S
    C55    H10       1.10054      .   S
    C55    H11       1.09704      .   S
    C69    N97       1.33790      .   S
    N95    N97       1.38550      .   S
    H18    C62       1.09853      .   S
    H38    C74       1.09914      .   S
    H19    C62       1.10007      .   S
    C62    H20       1.09922      .   S
    C62    C61       1.48394      .   S
    C74    H36       1.09764  1_455   S
    C74    H37       1.09917      .   S
    C74    C73       1.48384  1_455   S
    H28    C67       1.10056      .   S
    N91    C61       1.33781      .   S
    N91    N89       1.38543      .   S
    N99    C73       1.36306  1_455   S
    N99    C72       1.36948  1_445   S
    C73    N100      1.33761      .   S
    C61    N90       1.36318      .   S
    H27    C67       1.09570      .   S
    C67    H29       1.09685  1_545   S
    C67    C64       1.48173      .   S
    H40    C75       1.10142      .   S
    H47    C79       1.09724      .   S
    H46    C79       1.10061      .   S
    H45    C79       1.09570      .   S
    C64    N92       1.33757      .   S
    C64    N93       1.36954      .   S
    N100   N98       1.38531  1_545   S
    C72    C75       1.48170  1_655   S
    C72    N98       1.33794      .   S
    H1     C50       1.09977      .   S
    N89    C60       1.33737      .   S
    N92    N94       1.38620      .   S
    C75    H41       1.09711      .   S
    C75    H39       1.09558  1_455   S
    N93    C65       1.36263      .   S
    N90    C60       1.36959      .   S
    N94    C65       1.33769      .   S
    H0     C50       1.09779      .   S
