# CIF file generated by openbabel 2.4.90, see http://openbabel.sf.net
data_I
_chemical_name_common ''
_cell_length_a 15.583
_cell_length_b 15.627
_cell_length_c 15.672
_cell_angle_alpha 68.747
_cell_angle_beta 74.069
_cell_angle_gamma 111.034
_space_group_name_H-M_alt 'P 1'
_space_group_name_Hall 'P 1'
loop_
    _symmetry_equiv_pos_as_xyz
    x,y,z
loop_
    _atom_site_label
    _atom_site_type_symbol
    _atom_site_fract_x
    _atom_site_fract_y
    _atom_site_fract_z
    _atom_site_occupancy
    Cu0     Cu   0.24391   0.93637   0.06383   1.000
    Cu1     Cu   0.58928   0.69135   0.24811   1.000
    Cu2     Cu   0.50132   0.56561   0.69039   1.000
    Cu3     Cu   0.25164   0.16488   0.93712   1.000
    Cu4     Cu   0.80913   0.81139   0.25640   1.000
    Cu5     Cu   0.39644   0.33690   0.90998   1.000
    Cu6     Cu   0.43644   0.69292   0.99779   1.000
    Cu7     Cu   0.43817   0.19130   0.89744   1.000
    Cu8     Cu   0.75611   0.06366   0.93610   1.000
    Cu9     Cu   0.41074   0.30867   0.75189   1.000
    Cu10    Cu   0.49869   0.43441   0.30960   1.000
    Cu11    Cu   0.74837   0.83514   0.06287   1.000
    Cu12    Cu   0.19088   0.18864   0.74356   1.000
    Cu13    Cu   0.60355   0.66313   0.09002   1.000
    Cu14    Cu   0.56357   0.30711   0.00000   1.000
    H15     H    0.27348   0.71366   0.96774   1.000
    H16     H    0.28189   0.84059   0.91268   1.000
    H17     H    0.18033   0.73598   0.03770   1.000
    H18     H    0.49621   0.95561   0.16062   1.000
    H19     H    0.36065   0.89835   0.23646   1.000
    H20     H    0.42989   0.02105   0.11726   1.000
    H21     H    0.81976   0.78784   0.44000   1.000
    H22     H    0.74806   0.66125   0.55799   1.000
    H23     H    0.72737   0.76655   0.55419   1.000
    H24     H    0.38436   0.54555   0.45878   1.000
    H25     H    0.36472   0.60187   0.53765   1.000
    H26     H    0.36298   0.47952   0.58946   1.000
    H27     H    0.06195   0.74549   0.22793   1.000
    H28     H    0.94386   0.69795   0.21853   1.000
    H29     H    0.94623   0.72323   0.31950   1.000
    H30     H    0.04065   0.15995   0.00408   1.000
    H31     H    0.96005   0.09906   0.13884   1.000
    Cu32    Cu   0.56184   0.80873   0.10256   1.000
    H33     H    0.90977   0.05121   0.06653   1.000
    H34     H    0.53187   0.75882   0.68030   1.000
    H35     H    0.58851   0.80507   0.75142   1.000
    H36     H    0.46288   0.78272   0.77227   1.000
    H37     H    0.33872   0.34455   0.11460   1.000
    H38     H    0.26283   0.40473   0.13257   1.000
    H39     H    0.38271   0.45405   0.13617   1.000
    H40     H    0.72653   0.28637   0.00000   1.000
    H41     H    0.71813   0.15944   0.08732   1.000
    H42     H    0.81968   0.26405   0.96227   1.000
    H43     H    0.50380   0.04442   0.83938   1.000
    H44     H    0.63936   0.10168   0.76354   1.000
    H45     H    0.57012   0.97898   0.88274   1.000
    H46     H    0.18025   0.21219   0.56000   1.000
    H47     H    0.25195   0.33877   0.44201   1.000
    H48     H    0.27264   0.23347   0.44582   1.000
    H49     H    0.61565   0.45448   0.54122   1.000
    H50     H    0.63530   0.39817   0.46235   1.000
    H51     H    0.63703   0.52051   0.41054   1.000
    H52     H    0.93806   0.25454   0.77200   1.000
    H53     H    0.05616   0.30208   0.78140   1.000
    H54     H    0.05378   0.27680   0.68051   1.000
    H55     H    0.95936   0.84008   0.99590   1.000
    H56     H    0.03995   0.90097   0.86110   1.000
    H57     H    0.09024   0.94882   0.93347   1.000
    H58     H    0.46815   0.24121   0.31965   1.000
    H59     H    0.41151   0.19496   0.24858   1.000
    H60     H    0.53713   0.21731   0.22770   1.000
    H61     H    0.66129   0.65549   0.88540   1.000
    H62     H    0.73718   0.59531   0.86743   1.000
    H63     H    0.61731   0.54598   0.86383   1.000
    C64     C    0.40160   0.88397   0.10313   1.000
    C65     C    0.32958   0.80807   0.03054   1.000
    C66     C    0.26265   0.77245   0.98460   1.000
    C67     C    0.42387   0.94353   0.15693   1.000
    C68     C    0.51357   0.61731   0.48180   1.000
    C69     C    0.66233   0.69380   0.47784   1.000
    C70     C    0.74408   0.72949   0.50903   1.000
    C71     C    0.40007   0.55725   0.51891   1.000
    C72     C    0.01757   0.00759   0.09770   1.000
    C73     C    0.02253   0.86355   0.17040   1.000
    C74     C    0.99215   0.75133   0.23700   1.000
    C75     C    0.98004   0.08382   0.07495   1.000
    C76     C    0.39646   0.49622   0.98542   1.000
    C77     C    0.46940   0.64036   0.83714   1.000
    C78     C    0.51576   0.75297   0.75560   1.000
    C79     C    0.34262   0.42055   0.09850   1.000
    C80     C    0.59841   0.11606   0.89687   1.000
    C81     C    0.67043   0.19196   0.96940   1.000
    C82     C    0.73736   0.22758   0.00000   1.000
    C83     C    0.57614   0.05650   0.84307   1.000
    C84     C    0.48644   0.38272   0.51818   1.000
    C85     C    0.33768   0.30623   0.52217   1.000
    C86     C    0.25593   0.27053   0.49097   1.000
    C87     C    0.59995   0.44278   0.48109   1.000
    C88     C    0.98244   0.99244   0.90220   1.000
    C89     C    0.97748   0.13648   0.82960   1.000
    C90     C    0.00786   0.24870   0.76221   1.000
    C91     C    0.01997   0.91621   0.92505   1.000
    C92     C    0.60355   0.50381   0.00000   1.000
    C93     C    0.53061   0.35967   0.16286   1.000
    C94     C    0.48425   0.24705   0.24440   1.000
    C95     C    0.65739   0.57948   0.90148   1.000
    N96     N    0.44668   0.82952   0.08526   1.000
    N97     N    0.32851   0.87344   0.06890   1.000
    N98     N    0.39987   0.78029   0.03957   1.000
    N99     N    0.58570   0.67200   0.38293   1.000
    N100    N    0.55860   0.62807   0.54390   1.000
    N101    N    0.68078   0.72168   0.38042   1.000
    N102    N    0.11681   0.03414   0.05260   1.000
    N103    N    0.95584   0.90102   0.17120   1.000
    N104    N    0.11990   0.94203   0.09983   1.000
    N105    N    0.41413   0.46892   0.91356   1.000
    N106    N    0.43103   0.60327   0.94055   1.000
    N107    N    0.46003   0.56111   0.81877   1.000
    N108    N    0.55333   0.17051   0.91470   1.000
    N109    N    0.67150   0.12659   0.93106   1.000
    N110    N    0.60014   0.21974   0.96043   1.000
    N111    N    0.41431   0.32803   0.61707   1.000
    N112    N    0.44141   0.37196   0.45610   1.000
    N113    N    0.31923   0.27835   0.61958   1.000
    N114    N    0.88320   0.96589   0.94740   1.000
    N115    N    0.04417   0.09901   0.82881   1.000
    N116    N    0.88011   0.05800   0.90017   1.000
    N117    N    0.58588   0.53111   0.08644   1.000
    N118    N    0.56898   0.39676   0.05945   1.000
    N119    N    0.53998   0.43892   0.18123   1.000
loop_
    _geom_bond_atom_site_label_1
    _geom_bond_atom_site_label_2
    _geom_bond_distance
    _geom_bond_site_symmetry_2
    _ccdc_geom_bond_type
    H40    C82       0.99189      .   S
    Cu14   N118      1.93452      .   S
    Cu14   N110      1.88460  1_554   S
    C82    H41       1.25927      .   S
    C82    H42       1.06505  1_554   S
    C82    C81       1.29582  1_554   S
    C92    N118      1.38009      .   S
    C92    N117      1.54645      .   S
    C92    C95       1.31880  1_554   S
    H30    C75       1.09570  1_455   S
    C65    N98       1.33788      .   S
    C65    N97       1.36287      .   S
    C65    C66       1.48396  1_554   S
    H17    C66       1.09915  1_554   S
    N98    N96       1.38564      .   S
    N98    Cu6       1.90244  1_554   S
    N102   C72       1.33777      .   S
    N102   N104      1.38531  1_545   S
    N102   Cu3       2.00365  1_554   S
    N118   C93       1.36318      .   S
    Cu11   Cu13      2.60549      .   S
    Cu11   Cu32      2.63938      .   S
    Cu11   Cu1       2.63515      .   S
    Cu11   N114      2.00365  1_554   S
    Cu0    N97       1.90871      .   S
    Cu0    N104      1.90278      .   S
    H33    C75       1.09709      .   S
    N97    C64       1.36994      .   S
    C75    C72       1.48162  1_655   S
    C75    H31       1.10056      .   S
    N96    Cu32      2.00528      .   S
    N96    C64       1.33773      .   S
    N117   Cu13      2.00486      .   S
    N117   N119      1.38543      .   S
    Cu13   Cu32      2.63705      .   S
    Cu13   Cu1       2.63489      .   S
    C72    N103      1.36983  1_445   S
    C79    H37       1.09565      .   S
    C79    H38       1.10064      .   S
    C79    H39       1.09753      .   S
    C79    C76       1.48162  1_554   S
    N104   C73       1.33760      .   S
    Cu32   Cu1       2.61067      .   S
    C64    C67       1.48173      .   S
    H20    C67       1.09686  1_545   S
    C67    H18       1.09572      .   S
    C67    H19       1.10056      .   S
    C93    N119      1.33780      .   S
    C93    C94       1.48394      .   S
    C73    N103      1.36306  1_455   S
    C73    C74       1.48147  1_455   S
    N103   Cu4       1.90819      .   S
    N119   Cu10      1.90277      .   S
    H28    C74       1.09090      .   S
    H60    C94       1.09930      .   S
    H27    C74       1.09886  1_455   S
    C74    H29       1.10972      .   S
    C94    H59       1.10007      .   S
    C94    H58       1.09775      .   S
    Cu1    N99       2.00472      .   S
    Cu4    N101      1.90296      .   S
    Cu10   N112      1.90939      .   S
    N101   N99       1.38550      .   S
    N101   C69       1.33805      .   S
    N99    C68       1.33751      .   S
    H51    C87       1.09704      .   S
    H21    C70       1.09779      .   S
    H47    C86       1.10009      .   S
    H48    C86       1.09918      .   S
    N112   C84       1.36960      .   S
    N112   C85       1.36325      .   S
    H24    C71       1.09578      .   S
    H50    C87       1.10055      .   S
    C69    C70       1.48404      .   S
    C69    N100      1.36323      .   S
    C87    C84       1.48181      .   S
    C87    H49       1.09576      .   S
    C68    C71       1.48177      .   S
    C68    N100      1.36986      .   S
    C86    C85       1.48416      .   S
    C86    H46       1.09779      .   S
    C70    H23       1.09928      .   S
    C70    H22       1.10010      .   S
    C84    N111      1.33773      .   S
    C71    H25       1.10054      .   S
    C71    H26       1.09704      .   S
    C85    N113      1.33790      .   S
    N100   Cu2       1.90924      .   S
    N111   N113      1.38550      .   S
    N111   Cu9       2.00472      .   S
    N113   Cu12      1.90266      .   S
    H34    C78       1.09853      .   S
    H54    C90       1.09914      .   S
    Cu2    N107      1.90295      .   S
    Cu12   N115      1.90828      .   S
    H35    C78       1.10007      .   S
    Cu9    Cu7       2.61062      .   S
    Cu9    Cu5       2.63483      .   S
    Cu9    Cu3       2.63511      .   S
    C78    H36       1.09922      .   S
    C78    C77       1.48394      .   S
    C90    H52       1.09764  1_455   S
    C90    H53       1.09917      .   S
    C90    C89       1.48384  1_455   S
    H44    C83       1.10056      .   S
    N107   C77       1.33781      .   S
    N107   N105      1.38543      .   S
    N115   C89       1.36306  1_455   S
    N115   C88       1.36948  1_445   S
    C89    N116      1.33761      .   S
    C77    N106      1.36318      .   S
    H43    C83       1.09570      .   S
    C83    H45       1.09685  1_545   S
    C83    C80       1.48173      .   S
    H56    C91       1.10142      .   S
    H63    C95       1.09724      .   S
    H62    C95       1.10061      .   S
    H61    C95       1.09570      .   S
    C80    N108      1.33757      .   S
    C80    N109      1.36954      .   S
    Cu7    Cu5       2.63712      .   S
    Cu7    N108      2.00510      .   S
    Cu7    Cu3       2.63938      .   S
    N116   Cu8       1.90274      .   S
    N116   N114      1.38531  1_545   S
    C88    C91       1.48170  1_655   S
    C88    N114      1.33794      .   S
    Cu5    N105      2.00487      .   S
    Cu5    Cu3       2.60547      .   S
    H16    C66       1.09977      .   S
    N105   C76       1.33737      .   S
    N108   N110      1.38620      .   S
    C91    H57       1.09711      .   S
    C91    H55       1.09558  1_455   S
    N109   Cu8       1.90870      .   S
    N109   C81       1.36263      .   S
    N106   C76       1.36959      .   S
    N106   Cu6       1.90848      .   S
    N110   C81       1.33769      .   S
    H15    C66       1.09779      .   S
