# CIF file generated by openbabel 2.4.90, see http://openbabel.sf.net
data_I
_chemical_name_common ''
_cell_length_a 18.604
_cell_length_b 19.052
_cell_length_c 19.059
_cell_angle_alpha 70.331
_cell_angle_beta 70.885
_cell_angle_gamma 108.967
_space_group_name_H-M_alt 'P 1'
_space_group_name_Hall 'P 1'
loop_
    _symmetry_equiv_pos_as_xyz
    x,y,z
loop_
    _atom_site_label
    _atom_site_type_symbol
    _atom_site_fract_x
    _atom_site_fract_y
    _atom_site_fract_z
    _atom_site_occupancy
    H0      H    0.50295   0.37802   0.27152   1.000
    H1      H    0.36414   0.23465   0.00852   1.000
    H2      H    0.77534   0.27146   0.35025   1.000
    H3      H    0.37174   0.00938   0.75750   1.000
    H4      H    0.12608   0.35002   0.37686   1.000
    H5      H    0.13149   0.75661   0.23529   1.000
    H6      H    0.72430   0.35036   0.27167   1.000
    H7      H    0.12803   0.75714   0.00936   1.000
    H8      H    0.37464   0.37687   0.35010   1.000
    H9      H    0.36853   0.23554   0.75690   1.000
    H10     H    0.99649   0.27148   0.37830   1.000
    H11     H    0.13626   0.00909   0.23390   1.000
    H12     H    0.49703   0.62197   0.72848   1.000
    H13     H    0.63584   0.76535   0.99148   1.000
    H14     H    0.22464   0.72854   0.64976   1.000
    H15     H    0.62823   0.99061   0.24244   1.000
    H16     H    0.87390   0.64998   0.62314   1.000
    H17     H    0.86849   0.24340   0.76471   1.000
    H18     H    0.27568   0.64964   0.72830   1.000
    H19     H    0.87195   0.24286   0.99064   1.000
    H20     H    0.62534   0.62313   0.64982   1.000
    H21     H    0.63144   0.76446   0.24311   1.000
    H22     H    0.00349   0.72852   0.62170   1.000
    H23     H    0.86372   0.99091   0.76606   1.000
    H24     H    0.73313   0.48325   0.03429   1.000
    H25     H    0.57330   0.32408   0.35160   1.000
    H26     H    0.76685   0.03429   0.48336   1.000
    H27     H    0.92608   0.35150   0.32414   1.000
    H28     H    0.24992   0.48255   0.48260   1.000
    H29     H    0.25053   0.32330   0.32330   1.000
    H30     H    0.26685   0.51675   0.96571   1.000
    H31     H    0.42668   0.67591   0.64833   1.000
    H32     H    0.23313   0.96571   0.51665   1.000
    H33     H    0.07390   0.64850   0.67586   1.000
    H34     H    0.75006   0.51745   0.51734   1.000
    H35     H    0.74944   0.67670   0.67670   1.000
    H36     H    0.24996   0.24065   0.24068   1.000
    H37     H    0.25025   0.08169   0.08080   1.000
    H38     H    0.49042   0.24010   0.51994   1.000
    H39     H    0.32939   0.08266   0.83750   1.000
    H40     H    0.00947   0.51971   0.24023   1.000
    H41     H    0.17055   0.83712   0.08242   1.000
    H42     H    0.75001   0.75934   0.75932   1.000
    H43     H    0.74973   0.91831   0.91921   1.000
    H44     H    0.50955   0.75990   0.48007   1.000
    H45     H    0.67059   0.91734   0.16200   1.000
    H46     H    0.99052   0.48029   0.75977   1.000
    H47     H    0.82943   0.16289   0.91758   1.000
    C48     C    0.61229   0.43122   0.14782   1.000
    C49     C    0.56851   0.38848   0.23750   1.000
    C50     C    0.31242   0.24788   0.11929   1.000
    C51     C    0.31346   0.20219   0.07496   1.000
    C52     C    0.76029   0.14783   0.42128   1.000
    C53     C    0.80664   0.23742   0.37398   1.000
    C54     C    0.43109   0.11931   0.63386   1.000
    C55     C    0.38749   0.07571   0.72354   1.000
    C56     C    0.18161   0.42073   0.43042   1.000
    C57     C    0.18091   0.37352   0.38761   1.000
    C58     C    0.06540   0.63328   0.24803   1.000
    C59     C    0.11284   0.72287   0.20264   1.000
    C60     C    0.73952   0.42128   0.14794   1.000
    C61     C    0.69300   0.37398   0.23757   1.000
    C62     C    0.06875   0.63353   0.11937   1.000
    C63     C    0.11236   0.72316   0.07567   1.000
    C64     C    0.31863   0.43036   0.42088   1.000
    C65     C    0.31967   0.38758   0.37365   1.000
    C66     C    0.43452   0.24806   0.63350   1.000
    C67     C    0.38712   0.20280   0.72310   1.000
    C68     C    0.88745   0.14779   0.43138   1.000
    C69     C    0.93103   0.23742   0.38871   1.000
    C70     C    0.18774   0.11951   0.24750   1.000
    C71     C    0.18684   0.07546   0.20161   1.000
    C72     C    0.38769   0.56878   0.85218   1.000
    C73     C    0.43147   0.61152   0.76250   1.000
    C74     C    0.68756   0.75211   0.88071   1.000
    C75     C    0.68652   0.79781   0.92500   1.000
    C76     C    0.23969   0.85217   0.57873   1.000
    C77     C    0.19334   0.76258   0.62602   1.000
    C78     C    0.56889   0.88068   0.36615   1.000
    C79     C    0.61249   0.92429   0.27647   1.000
    C80     C    0.81837   0.57927   0.56958   1.000
    C81     C    0.81907   0.62647   0.61239   1.000
    C82     C    0.93458   0.36672   0.75190   1.000
    C83     C    0.88714   0.27714   0.79736   1.000
    C84     C    0.26046   0.57871   0.85207   1.000
    C85     C    0.30698   0.62602   0.76243   1.000
    C86     C    0.93123   0.36647   0.88063   1.000
    C87     C    0.88762   0.27684   0.92433   1.000
    C88     C    0.68135   0.56963   0.57913   1.000
    C89     C    0.68030   0.61242   0.62635   1.000
    C90     C    0.56546   0.75194   0.36640   1.000
    C91     C    0.61285   0.79720   0.27685   1.000
    C92     C    0.11252   0.85220   0.56863   1.000
    C93     C    0.06895   0.76257   0.61100   1.000
    C94     C    0.81223   0.88049   0.75242   1.000
    C95     C    0.81313   0.92454   0.79839   1.000
    C96     C    0.69807   0.44830   0.10300   1.000
    C97     C    0.60841   0.35901   0.28199   1.000
    C98     C    0.80177   0.10376   0.44843   1.000
    C99     C    0.89112   0.28185   0.35908   1.000
    C100    C    0.25004   0.44766   0.44777   1.000
    C101    C    0.25038   0.35825   0.35831   1.000
    C102    C    0.30191   0.55170   0.89621   1.000
    C103    C    0.39157   0.64098   0.71801   1.000
    C104    C    0.19821   0.89624   0.55158   1.000
    C105    C    0.10886   0.71815   0.64093   1.000
    C106    C    0.74994   0.55233   0.55223   1.000
    C107    C    0.74960   0.64175   0.64169   1.000
    C108    C    0.25002   0.20582   0.20567   1.000
    C109    C    0.25020   0.11657   0.11591   1.000
    C110    C    0.45516   0.20558   0.58951   1.000
    C111    C    0.36479   0.11724   0.76779   1.000
    C112    C    0.04474   0.58924   0.20564   1.000
    C113    C    0.13512   0.76743   0.11708   1.000
    C114    C    0.74995   0.79418   0.79433   1.000
    C115    C    0.74978   0.88342   0.88409   1.000
    C116    C    0.54481   0.79441   0.41050   1.000
    C117    C    0.63519   0.88276   0.23222   1.000
    C118    C    0.95524   0.41076   0.79436   1.000
    C119    C    0.86485   0.23257   0.88292   1.000
loop_
    _geom_bond_atom_site_label_1
    _geom_bond_atom_site_label_2
    _geom_bond_distance
    _geom_bond_site_symmetry_2
    _ccdc_geom_bond_type
    H1     C51       1.08937      .   S
    H7     C63       1.08930      .   S
    H24    C96       1.07470      .   S
    C51    C109      1.39587      .   S
    C51    C50       1.40262      .   S
    C63    C113      1.39590      .   S
    C63    C62       1.40258      .   S
    H37    C109      1.09040      .   S
    H41    C113      1.09041      .   S
    C96    C48       1.40166      .   S
    C96    C60       1.40958      .   S
    C109   C71       1.39587      .   S
    C113   C59       1.39580      .   S
    C50    C108      1.39843      .   S
    C62    C112      1.39820      .   S
    C48    C49       1.40288      .   S
    C60    C61       1.40276      .   S
    H45    C117      1.09820      .   S
    C71    H11       1.08939      .   S
    C71    C70       1.40140      .   S
    C59    H5        1.08927      .   S
    C59    C58       1.40261      .   S
    C112   H40       1.08800      .   S
    C112   C58       1.39805      .   S
    C108   H36       1.08798      .   S
    C108   C70       1.39866      .   S
    C117   C79       1.39592      .   S
    C117   C91       1.39584      .   S
    C49    H0        1.08846      .   S
    C49    C97       1.39566      .   S
    C61    H6        1.08860      .   S
    C61    C97       1.39569      .   S
    H15    C79       1.08925      .   S
    H21    C91       1.08939      .   S
    C79    C78       1.40271      .   S
    C91    C90       1.40121      .   S
    C97    H25       1.08866      .   S
    H29    C101      1.08980      .   S
    H27    C99       1.08990      .   S
    H8     C65       1.08878      .   S
    H2     C53       1.08854      .   S
    C101   C65       1.39571      .   S
    C101   C57       1.39573      .   S
    C99    C53       1.39575      .   S
    C99    C69       1.39570      .   S
    C78    C116      1.39812      .   S
    C90    C116      1.39911      .   S
    C65    C64       1.40285      .   S
    C53    C52       1.40280      .   S
    H4     C57       1.08851      .   S
    H10    C69       1.08850      .   S
    C57    C56       1.40290      .   S
    C69    C68       1.40286      .   S
    C116   H44       1.08804      .   S
    C64    C100      1.39945      .   S
    C52    C98       1.39952      .   S
    C56    C100      1.39950      .   S
    C68    C98       1.39942      .   S
    C100   H28       1.08594      .   S
    C98    H26       1.08706      .   S
    H32    C104      1.08706      .   S
    H34    C106      1.08687      .   S
    H38    C110      1.08804      .   S
    C104   C92       1.39942      .   S
    C104   C76       1.39949      .   S
    C106   C80       1.39952      .   S
    C106   C88       1.39947      .   S
    C92    C93       1.40298      .   S
    C80    C81       1.40288      .   S
    C76    C77       1.40280      .   S
    C88    C89       1.40269      .   S
    C110   C66       1.39762      .   S
    C110   C54       1.39812      .   S
    C93    H22       1.08638      .   S
    C93    C105      1.39786      .   S
    C81    H16       1.08851      .   S
    C81    C107      1.39573      .   S
    C77    C105      1.39567      .   S
    C77    H14       1.08863      .   S
    C89    C107      1.39573      .   S
    C89    H20       1.08853      .   S
    C66    C67       1.40198      .   S
    C54    C55       1.40271      .   S
    C105   H33       1.08988      .   S
    C107   H35       1.08978      .   S
    H31    C103      1.08975      .   S
    C103   C85       1.39568      .   S
    C103   C73       1.39568      .   S
    C67    H9        1.09016      .   S
    C67    C111      1.39598      .   S
    C55    H3        1.08910      .   S
    C55    C111      1.39591      .   S
    H18    C85       1.08897      .   S
    H12    C73       1.08846      .   S
    C82    C118      1.39923      .   S
    C82    C83       1.40260      .   S
    C94    C114      1.39852      .   S
    C94    C95       1.40265      .   S
    H42    C114      1.08796      .   S
    H46    C118      1.08798      .   S
    C85    C84       1.40291      .   S
    C73    C72       1.40288      .   S
    H17    C83       1.08929      .   S
    H23    C95       1.08933      .   S
    C111   H39       1.09024      .   S
    C114   C74       1.39843      .   S
    C118   C86       1.39820      .   S
    C83    C119      1.39580      .   S
    C95    C115      1.39586      .   S
    C84    C102      1.39954      .   S
    C72    C102      1.39933      .   S
    C86    C87       1.40258      .   S
    C74    C75       1.40199      .   S
    C119   H47       1.09041      .   S
    C119   C87       1.39590      .   S
    C115   H43       1.09054      .   S
    C115   C75       1.39596      .   S
    C102   H30       1.08695      .   S
    C87    H19       1.08930      .   S
    C75    H13       1.08990      .   S
