# CIF file generated by openbabel 2.4.90, see http://openbabel.sf.net
data_I
_chemical_name_common ''
_cell_length_a 18.604
_cell_length_b 19.052
_cell_length_c 19.059
_cell_angle_alpha 70.331
_cell_angle_beta 70.885
_cell_angle_gamma 108.967
_space_group_name_H-M_alt 'P 1'
_space_group_name_Hall 'P 1'
loop_
    _symmetry_equiv_pos_as_xyz
    x,y,z
loop_
    _atom_site_label
    _atom_site_type_symbol
    _atom_site_fract_x
    _atom_site_fract_y
    _atom_site_fract_z
    _atom_site_occupancy
    Zn0     Zn   0.51392   0.06924   0.42196   1.000
    Zn1     Zn   0.93594   0.42207   0.50805   1.000
    Zn2     Zn   0.98605   0.42192   0.06920   1.000
    Zn3     Zn   0.56414   0.50791   0.42211   1.000
    Zn4     Zn   0.05530   0.06948   0.50919   1.000
    Zn5     Zn   0.55548   0.49089   0.93045   1.000
    Zn6     Zn   0.48605   0.93075   0.57805   1.000
    Zn7     Zn   0.06404   0.57793   0.49195   1.000
    Zn8     Zn   0.01393   0.57808   0.93081   1.000
    Zn9     Zn   0.43583   0.49208   0.57790   1.000
    Zn10    Zn   0.94468   0.93052   0.49081   1.000
    H11     H    0.50295   0.37802   0.27152   1.000
    H12     H    0.36414   0.23465   0.00852   1.000
    H13     H    0.77534   0.27146   0.35025   1.000
    H14     H    0.37174   0.00938   0.75750   1.000
    H15     H    0.12608   0.35002   0.37686   1.000
    H16     H    0.13149   0.75661   0.23529   1.000
    Zn17    Zn   0.44450   0.50911   0.06955   1.000
    H18     H    0.72430   0.35036   0.27167   1.000
    H19     H    0.12803   0.75714   0.00936   1.000
    H20     H    0.37464   0.37687   0.35010   1.000
    H21     H    0.36853   0.23554   0.75690   1.000
    H22     H    0.99649   0.27148   0.37830   1.000
    H23     H    0.13626   0.00909   0.23390   1.000
    H24     H    0.49703   0.62197   0.72848   1.000
    H25     H    0.63584   0.76535   0.99148   1.000
    H26     H    0.22464   0.72854   0.64976   1.000
    H27     H    0.62823   0.99061   0.24244   1.000
    H28     H    0.87390   0.64998   0.62314   1.000
    H29     H    0.86849   0.24340   0.76471   1.000
    H30     H    0.27568   0.64964   0.72830   1.000
    H31     H    0.87195   0.24286   0.99064   1.000
    H32     H    0.62534   0.62313   0.64982   1.000
    H33     H    0.63144   0.76446   0.24311   1.000
    H34     H    0.00349   0.72852   0.62170   1.000
    H35     H    0.86372   0.99091   0.76606   1.000
    H36     H    0.73313   0.48325   0.03429   1.000
    H37     H    0.57330   0.32408   0.35160   1.000
    H38     H    0.76685   0.03429   0.48336   1.000
    H39     H    0.92608   0.35150   0.32414   1.000
    H40     H    0.24992   0.48255   0.48260   1.000
    H41     H    0.25053   0.32330   0.32330   1.000
    H42     H    0.26685   0.51675   0.96571   1.000
    H43     H    0.42668   0.67591   0.64833   1.000
    H44     H    0.23313   0.96571   0.51665   1.000
    H45     H    0.07390   0.64850   0.67586   1.000
    H46     H    0.75006   0.51745   0.51734   1.000
    H47     H    0.74944   0.67670   0.67670   1.000
    H48     H    0.24996   0.24065   0.24068   1.000
    H49     H    0.25025   0.08169   0.08080   1.000
    H50     H    0.49042   0.24010   0.51994   1.000
    H51     H    0.32939   0.08266   0.83750   1.000
    H52     H    0.00947   0.51971   0.24023   1.000
    H53     H    0.17055   0.83712   0.08242   1.000
    H54     H    0.75001   0.75934   0.75932   1.000
    H55     H    0.74973   0.91831   0.91921   1.000
    H56     H    0.50955   0.75990   0.48007   1.000
    H57     H    0.67059   0.91734   0.16200   1.000
    H58     H    0.99052   0.48029   0.75977   1.000
    H59     H    0.82943   0.16289   0.91758   1.000
    C60     C    0.56724   0.45649   0.09925   1.000
    C61     C    0.61229   0.43122   0.14782   1.000
    C62     C    0.56851   0.38848   0.23750   1.000
    C63     C    0.37857   0.34083   0.07574   1.000
    C64     C    0.31242   0.24788   0.11929   1.000
    C65     C    0.31346   0.20219   0.07496   1.000
    C66     C    0.66658   0.09942   0.44445   1.000
    C67     C    0.76029   0.14783   0.42128   1.000
    C68     C    0.80664   0.23742   0.37398   1.000
    C69     C    0.45394   0.07536   0.58458   1.000
    C70     C    0.43109   0.11931   0.63386   1.000
    C71     C    0.38749   0.07571   0.72354   1.000
    C72     C    0.11112   0.44415   0.45572   1.000
    C73     C    0.18161   0.42073   0.43042   1.000
    C74     C    0.18091   0.37352   0.38761   1.000
    C75     C    0.03835   0.58385   0.34094   1.000
    C76     C    0.06540   0.63328   0.24803   1.000
    C77     C    0.11284   0.72287   0.20264   1.000
    C78     C    0.83331   0.44448   0.09954   1.000
    C79     C    0.73952   0.42128   0.14794   1.000
    C80     C    0.69300   0.37398   0.23757   1.000
    C81     C    0.04593   0.58428   0.07547   1.000
    C82     C    0.06875   0.63353   0.11937   1.000
    C83     C    0.11236   0.72316   0.07567   1.000
    O84     O    0.97449   0.49408   0.88739   1.000
    O85     O    0.11967   0.48847   0.97380   1.000
    O86     O    0.95224   0.37503   0.99416   1.000
    O87     O    0.53685   0.53309   0.60340   1.000
    O88     O    0.48002   0.61865   0.49422   1.000
    O89     O    0.63117   0.53703   0.48884   1.000
    O90     O    0.57705   0.62937   0.37562   1.000
    O91     O    0.00000   0.86447   0.53126   1.000
    C92     C    0.38896   0.45570   0.44433   1.000
    C93     C    0.31863   0.43036   0.42088   1.000
    C94     C    0.31967   0.38758   0.37365   1.000
    C95     C    0.46163   0.34097   0.58402   1.000
    C96     C    0.43452   0.24806   0.63350   1.000
    C97     C    0.38712   0.20280   0.72310   1.000
    C98     C    0.93258   0.09927   0.45670   1.000
    C99     C    0.88745   0.14779   0.43138   1.000
    C100    C    0.93103   0.23742   0.38871   1.000
    C101    C    0.12149   0.07581   0.34063   1.000
    C102    C    0.18774   0.11951   0.24750   1.000
    C103    C    0.18684   0.07546   0.20161   1.000
    C104    C    0.43274   0.54351   0.90075   1.000
    C105    C    0.38769   0.56878   0.85218   1.000
    C106    C    0.43147   0.61152   0.76250   1.000
    C107    C    0.62141   0.65917   0.92426   1.000
    C108    C    0.68756   0.75211   0.88071   1.000
    C109    C    0.68652   0.79781   0.92500   1.000
    C110    C    0.33340   0.90058   0.55550   1.000
    C111    C    0.23969   0.85217   0.57873   1.000
    C112    C    0.19334   0.76258   0.62602   1.000
    C113    C    0.54604   0.92463   0.41543   1.000
    C114    C    0.56889   0.88068   0.36615   1.000
    C115    C    0.61249   0.92429   0.27647   1.000
    C116    C    0.88885   0.55585   0.54428   1.000
    C117    C    0.81837   0.57927   0.56958   1.000
    C118    C    0.81907   0.62647   0.61239   1.000
    C119    C    0.96163   0.41615   0.65906   1.000
    C120    C    0.93458   0.36672   0.75190   1.000
    C121    C    0.88714   0.27714   0.79736   1.000
    C122    C    0.16667   0.55552   0.90046   1.000
    C123    C    0.26046   0.57871   0.85207   1.000
    C124    C    0.30698   0.62602   0.76243   1.000
    C125    C    0.95405   0.41572   0.92453   1.000
    C126    C    0.93123   0.36647   0.88063   1.000
    C127    C    0.88762   0.27684   0.92433   1.000
    C128    C    0.61102   0.54429   0.55568   1.000
    C129    C    0.68135   0.56963   0.57913   1.000
    C130    C    0.68030   0.61242   0.62635   1.000
    C131    C    0.53834   0.65902   0.41598   1.000
    C132    C    0.56546   0.75194   0.36640   1.000
    C133    C    0.61285   0.79720   0.27685   1.000
    C134    C    0.06739   0.90072   0.54330   1.000
    C135    C    0.11252   0.85220   0.56863   1.000
    C136    C    0.06895   0.76257   0.61100   1.000
    C137    C    0.87849   0.92419   0.65937   1.000
    C138    C    0.81223   0.88049   0.75242   1.000
    C139    C    0.81313   0.92454   0.79839   1.000
    C140    C    0.69807   0.44830   0.10300   1.000
    C141    C    0.60841   0.35901   0.28199   1.000
    C142    C    0.80177   0.10376   0.44843   1.000
    C143    C    0.89112   0.28185   0.35908   1.000
    C144    C    0.25004   0.44766   0.44777   1.000
    C145    C    0.25038   0.35825   0.35831   1.000
    C146    C    0.30191   0.55170   0.89621   1.000
    C147    C    0.39157   0.64098   0.71801   1.000
    C148    C    0.19821   0.89624   0.55158   1.000
    C149    C    0.10886   0.71815   0.64093   1.000
    C150    C    0.74994   0.55233   0.55223   1.000
    C151    C    0.74960   0.64175   0.64169   1.000
    C152    C    0.25002   0.20582   0.20567   1.000
    C153    C    0.25020   0.11657   0.11591   1.000
    C154    C    0.45516   0.20558   0.58951   1.000
    C155    C    0.36479   0.11724   0.76779   1.000
    C156    C    0.04474   0.58924   0.20564   1.000
    C157    C    0.13512   0.76743   0.11708   1.000
    C158    C    0.74995   0.79418   0.79433   1.000
    C159    C    0.74978   0.88342   0.88409   1.000
    C160    C    0.54481   0.79441   0.41050   1.000
    C161    C    0.63519   0.88276   0.23222   1.000
    C162    C    0.95524   0.41076   0.79436   1.000
    C163    C    0.86485   0.23257   0.88292   1.000
    O164    O    0.50483   0.46849   0.13550   1.000
    O165    O    0.36136   0.38198   0.11323   1.000
    O166    O    0.59401   0.46283   0.02559   1.000
    O167    O    0.44641   0.36974   0.00000   1.000
    O168    O    0.64041   0.13553   0.39646   1.000
    O169    O    0.47421   0.11242   0.50625   1.000
    O170    O    0.61960   0.02610   0.51153   1.000
    O171    O    0.45201   0.00000   0.62525   1.000
    O172    O    0.03705   0.39643   0.46696   1.000
    O173    O    0.98014   0.50565   0.38142   1.000
    O174    O    0.13111   0.51106   0.46280   1.000
    O175    O    0.07691   0.62429   0.37052   1.000
    O176    O    0.85949   0.39647   0.13565   1.000
    O177    O    0.02549   0.50592   0.11262   1.000
    O178    O    0.88031   0.51153   0.02619   1.000
    O179    O    0.04775   0.62497   0.00000   1.000
    O180    O    0.46313   0.46690   0.39660   1.000
    O181    O    0.51995   0.38134   0.50579   1.000
    O182    O    0.36880   0.46296   0.51117   1.000
    O183    O    0.42292   0.37062   0.62439   1.000
    O184    O    0.99485   0.13552   0.46874   1.000
    O185    O    0.13850   0.11315   0.38190   1.000
    O186    O    0.90609   0.02570   0.46291   1.000
    O187    O    0.05381   0.00000   0.36952   1.000
    O188    O    0.49515   0.53150   0.86445   1.000
    O189    O    0.63862   0.61802   0.88677   1.000
    O190    O    0.40598   0.53717   0.97441   1.000
    O191    O    0.55357   0.63026   0.99417   1.000
    O192    O    0.35957   0.86447   0.60355   1.000
    O193    O    0.52576   0.88758   0.49376   1.000
    O194    O    0.38037   0.97390   0.48848   1.000
    O195    O    0.54797   0.99435   0.37476   1.000
    O196    O    0.96293   0.60357   0.53304   1.000
    O197    O    0.01985   0.49435   0.61858   1.000
    O198    O    0.86887   0.48894   0.53700   1.000
    O199    O    0.92307   0.37571   0.62948   1.000
    O200    O    0.14049   0.60353   0.86436   1.000
    O201    O    0.86148   0.88685   0.61810   1.000
    O202    O    0.09389   0.97430   0.53709   1.000
    O203    O    0.94617   0.99411   0.63048   1.000
loop_
    _geom_bond_atom_site_label_1
    _geom_bond_atom_site_label_2
    _geom_bond_distance
    _geom_bond_site_symmetry_2
    _ccdc_geom_bond_type
    O167   C63       1.34154      .   S
    O167   Zn5       2.08241  1_554   S
    O179   C81       1.36800      .   S
    O179   Zn8       1.97588  1_554   S
    H12    C65       1.08937      .   S
    H19    C83       1.08930      .   S
    O166   C60       1.27368      .   S
    O166   Zn5       2.12958  1_554   S
    O178   C78       1.27357      .   S
    O178   Zn8       2.12881  1_654   S
    H36    C140      1.07470      .   S
    Zn2    O177      2.07613  1_655   S
    Zn2    O176      2.06744      .   S
    Zn2    O85       2.12892  1_654   S
    Zn2    O86       2.07928  1_554   S
    Zn17   O165      2.07750      .   S
    Zn17   O164      2.06700      .   S
    Zn17   O190      2.12953  1_554   S
    Zn17   O191      2.07919  1_554   S
    C65    C153      1.39587      .   S
    C65    C64       1.40262      .   S
    C81    O177      1.27195      .   S
    C81    C82       1.50433      .   S
    C83    C157      1.39590      .   S
    C83    C82       1.40258      .   S
    C63    O165      1.27204      .   S
    C63    C64       1.50472      .   S
    H49    C153      1.09040      .   S
    H53    C157      1.09041      .   S
    C60    O164      1.27728      .   S
    C60    C61       1.50380      .   S
    C78    O176      1.27779      .   S
    C78    C79       1.50377      .   S
    C140   C61       1.40166      .   S
    C140   C79       1.40958      .   S
    C153   C103      1.39587      .   S
    C157   C77       1.39580      .   S
    C64    C152      1.39843      .   S
    C82    C156      1.39820      .   S
    C61    C62       1.40288      .   S
    C79    C80       1.40276      .   S
    H57    C161      1.09820      .   S
    C103   H23       1.08939      .   S
    C103   C102      1.40140      .   S
    C77    H16       1.08927      .   S
    C77    C76       1.40261      .   S
    C156   H52       1.08800      .   S
    C156   C76       1.39805      .   S
    C152   H48       1.08798      .   S
    C152   C102      1.39866      .   S
    C161   C115      1.39592      .   S
    C161   C133      1.39584      .   S
    C62    H11       1.08846      .   S
    C62    C141      1.39566      .   S
    C80    H18       1.08860      .   S
    C80    C141      1.39569      .   S
    H27    C115      1.08925      .   S
    H33    C133      1.08939      .   S
    C102   C101      1.50605      .   S
    C76    C75       1.50381      .   S
    C115   C114      1.40271      .   S
    C133   C132      1.40121      .   S
    C141   H37       1.08866      .   S
    H41    C145      1.08980      .   S
    H39    C143      1.08990      .   S
    C101   O187      1.34275      .   S
    C101   O185      1.27212      .   S
    C75    O175      1.27433      .   S
    C75    O173      1.27206  1_455   S
    H20    C94       1.08878      .   S
    H13    C68       1.08854      .   S
    C145   C94       1.39571      .   S
    C145   C74       1.39573      .   S
    C143   C68       1.39575      .   S
    C143   C100      1.39570      .   S
    C114   C160      1.39812      .   S
    C114   C113      1.50441      .   S
    C132   C160      1.39911      .   S
    C132   C131      1.50403      .   S
    O187   Zn10      2.08268  1_445   S
    O175   Zn7       2.07780      .   S
    C94    C93       1.40285      .   S
    C68    C67       1.40280      .   S
    O195   C113      1.27444      .   S
    O195   Zn0       2.07956  1_565   S
    O90    C131      1.27426      .   S
    O90    Zn3       2.07770      .   S
    H15    C74       1.08851      .   S
    H22    C100      1.08850      .   S
    O173   Zn1       2.07327      .   S
    O185   Zn4       2.07804      .   S
    C74    C73       1.40290      .   S
    C100   C99       1.40286      .   S
    O168   Zn0       2.06746      .   S
    O168   C66       1.27771      .   S
    O180   Zn3       2.06838      .   S
    O180   C92       1.27781      .   S
    C160   H56       1.08804      .   S
    C113   O193      1.27200      .   S
    C131   O88       1.27208      .   S
    C93    C92       1.50406      .   S
    C93    C144      1.39945      .   S
    C67    C66       1.50386      .   S
    C67    C142      1.39952      .   S
    Zn0    O194      2.12906  1_545   S
    Zn0    O169      2.07615      .   S
    Zn3    O89       2.13174      .   S
    Zn3    O181      2.07315      .   S
    C73    C144      1.39950      .   S
    C73    C72       1.50411      .   S
    C99    C142      1.39942      .   S
    C99    C98       1.50400      .   S
    C92    O182      1.27363      .   S
    C66    O170      1.27360      .   S
    C144   H40       1.08594      .   S
    C142   H38       1.08706      .   S
    C72    O174      1.27359      .   S
    C72    O172      1.27781      .   S
    C98    O186      1.27378      .   S
    C98    O184      1.27763      .   S
    O174   Zn7       2.13172      .   S
    O186   Zn10      2.12922  1_545   S
    O172   Zn1       2.06892  1_455   S
    O184   Zn4       2.06812  1_655   S
    O194   C110      1.27314      .   S
    O89    C128      1.27363      .   S
    Zn10   O91       1.98635  1_655   S
    Zn10   O201      2.07805      .   S
    Zn7    O196      2.06893  1_455   S
    Zn7    O197      2.07328      .   S
    O193   Zn6       2.07617      .   S
    O88    Zn9       2.07316      .   S
    O181   C95       1.27197      .   S
    O169   C69       1.27199      .   S
    Zn1    O198      2.13068      .   S
    Zn1    O199      2.07781      .   S
    Zn4    O202      2.12922  1_545   S
    Zn4    O203      2.07952  1_445   S
    O182   Zn9       2.13172      .   S
    O170   Zn6       2.12908  1_545   S
    H44    C148      1.08706      .   S
    H46    C150      1.08687      .   S
    H50    C154      1.08804      .   S
    O91    C134      1.35422      .   S
    O196   C116      1.27780      .   S
    O198   C116      1.27563      .   S
    O202   C134      1.27382      .   S
    C134   C135      1.50405      .   S
    C116   C117      1.50413      .   S
    C148   C135      1.39942      .   S
    C148   C111      1.39949      .   S
    C150   C117      1.39952      .   S
    C150   C129      1.39947      .   S
    C110   C111      1.50353      .   S
    C110   O192      1.27846      .   S
    C128   C129      1.50408      .   S
    C128   O87       1.27775      .   S
    C135   C136      1.40298      .   S
    C117   C118      1.40288      .   S
    Zn9    O87       2.06830      .   S
    Zn9    O183      2.07768      .   S
    Zn6    O192      2.06746      .   S
    Zn6    O171      1.97982  1_565   S
    C111   C112      1.40280      .   S
    C129   C130      1.40269      .   S
    C95    O183      1.27434      .   S
    C95    C96       1.50380      .   S
    C69    O171      1.36487      .   S
    C69    C70       1.50441      .   S
    C154   C96       1.39762      .   S
    C154   C70       1.39812      .   S
    C136   H34       1.08638      .   S
    C136   C149      1.39786      .   S
    C118   H28       1.08851      .   S
    C118   C151      1.39573      .   S
    O201   C137      1.27213      .   S
    O197   C119      1.27206  1_455   S
    C112   C149      1.39567      .   S
    C112   H26       1.08863      .   S
    C130   C151      1.39573      .   S
    C130   H32       1.08853      .   S
    O199   C119      1.27432      .   S
    O203   C137      1.27475      .   S
    C96    C97       1.40198      .   S
    C70    C71       1.40271      .   S
    C149   H45       1.08988      .   S
    C151   H47       1.08978      .   S
    H43    C147      1.08975      .   S
    C119   C120      1.50267      .   S
    C137   C138      1.50494      .   S
    C147   C124      1.39568      .   S
    C147   C106      1.39568      .   S
    C97    H21       1.09016      .   S
    C97    C155      1.39598      .   S
    C71    H14       1.08910      .   S
    C71    C155      1.39591      .   S
    H30    C124      1.08897      .   S
    H24    C106      1.08846      .   S
    C120   C162      1.39923      .   S
    C120   C121      1.40260      .   S
    C138   C158      1.39852      .   S
    C138   C139      1.40265      .   S
    H54    C158      1.08796      .   S
    H58    C162      1.08798      .   S
    C124   C123      1.40291      .   S
    C106   C105      1.40288      .   S
    H29    C121      1.08929      .   S
    H35    C139      1.08933      .   S
    C155   H51       1.09024      .   S
    C158   C108      1.39843      .   S
    C162   C126      1.39820      .   S
    C121   C163      1.39580      .   S
    C139   C159      1.39586      .   S
    C123   C146      1.39954      .   S
    C123   C122      1.50375      .   S
    C105   C146      1.39933      .   S
    C105   C104      1.50381      .   S
    O200   C122      1.27771      .   S
    O200   Zn8       2.06744      .   S
    O188   C104      1.27759      .   S
    O188   Zn5       2.06765      .   S
    C126   C127      1.40258      .   S
    C126   C125      1.50431      .   S
    C108   C107      1.50471      .   S
    C108   C109      1.40199      .   S
    C163   H59       1.09041      .   S
    C163   C127      1.39590      .   S
    C159   H55       1.09054      .   S
    C159   C109      1.39596      .   S
    O189   C107      1.27204      .   S
    O189   Zn5       2.07751      .   S
    O84    C125      1.27194      .   S
    O84    Zn8       2.07612  1_655   S
    C146   H42       1.08695      .   S
    C122   O85       1.27345      .   S
    C104   O190      1.27369      .   S
    C107   O191      1.27446      .   S
    C127   H31       1.08930      .   S
    C125   O86       1.27446      .   S
    C109   H25       1.08990      .   S
    Zn17   Zn5       2.98539  1_554   S
    Zn0    Zn6       2.98281  1_545   S
    Zn1    Zn7       2.98310  1_655   S
    Zn2    Zn8       2.98252  1_654   S
    Zn3    Zn9       2.98203      .   S
    Zn4    Zn10      2.98691  1_445   S
