# CIF file generated by openbabel 2.4.90, see http://openbabel.sf.net
data_I
_chemical_name_common ''
_cell_length_a 18.604
_cell_length_b 19.052
_cell_length_c 19.059
_cell_angle_alpha 70.331
_cell_angle_beta 70.885
_cell_angle_gamma 108.967
_space_group_name_H-M_alt 'P 1'
_space_group_name_Hall 'P 1'
loop_
    _symmetry_equiv_pos_as_xyz
    x,y,z
loop_
    _atom_site_label
    _atom_site_type_symbol
    _atom_site_fract_x
    _atom_site_fract_y
    _atom_site_fract_z
    _atom_site_occupancy
    N0      N    0.09787   0.69401   0.15357   1.000
    N1      N    0.25013   0.15335   0.15288   1.000
    N2      N    0.14567   0.79152   0.60409   1.000
    N3      N    0.74985   0.84665   0.84710   1.000
    N4      N    0.74974   0.60491   0.60484   1.000
    N5      N    0.35463   0.60420   0.79142   1.000
    N6      N    0.59795   0.84636   0.30562   1.000
    N7      N    0.90211   0.30599   0.84642   1.000
    N8      N    0.40202   0.15364   0.69431   1.000
    N9      N    0.25024   0.39508   0.39515   1.000
    N10     N    0.64535   0.39580   0.20849   1.000
    N11     N    0.85430   0.20848   0.39589   1.000
    Zr12    Zr   0.49999   0.50000   0.99958   1.000
    O13     O    0.55877   0.45991   0.08280   1.000
    O14     O    0.39890   0.36193   0.06239   1.000
    O15     O    0.44121   0.54009   0.91676   1.000
    O16     O    0.60108   0.63807   0.93719   1.000
    Zr17    Zr   0.49999   0.50000   0.50000   1.000
    O18     O    0.40100   0.45953   0.45694   1.000
    O19     O    0.59897   0.54047   0.54306   1.000
    O20     O    0.53746   0.63796   0.42420   1.000
    O21     O    0.46252   0.36204   0.57577   1.000
    Zr22    Zr   0.49999   0.99960   0.50000   1.000
    O23     O    0.64193   0.08282   0.45719   1.000
    O24     O    0.35805   0.91677   0.54280   1.000
    O25     O    0.53885   0.93705   0.42410   1.000
    O26     O    0.46113   0.06254   0.57588   1.000
    Zr27    Zr   0.99962   0.99958   0.50000   1.000
    O28     O    0.05872   0.91678   0.54001   1.000
    O29     O    0.89861   0.93704   0.63825   1.000
    O30     O    0.94089   0.08279   0.45998   1.000
    O31     O    0.10100   0.06254   0.36174   1.000
    Zr32    Zr   0.99999   0.50000   0.49999   1.000
    O33     O    0.09915   0.45688   0.45955   1.000
    O34     O    0.90083   0.54312   0.54043   1.000
    O35     O    0.03743   0.57564   0.36201   1.000
    O36     O    0.96255   0.42436   0.63797   1.000
    Zr37    Zr   0.99999   0.50000   0.99958   1.000
    O38     O    0.85794   0.45717   0.08285   1.000
    O39     O    0.96118   0.42427   0.93704   1.000
    O40     O    0.14204   0.54283   0.91671   1.000
    O41     O    0.03880   0.57573   0.06254   1.000
loop_
    _geom_bond_atom_site_label_1
    _geom_bond_atom_site_label_2
    _geom_bond_distance
    _geom_bond_site_symmetry_2
    _ccdc_geom_bond_type
    Zr12   O13       2.27117  1_556   S
    N10    O13       3.41483      .   S
    Zr12   O14       2.25378  1_556   S
    N1     O14       3.39652      .   S
    Zr12   O15       2.26554      .   S
    N5     O15       3.40987      .   S
    Zr12   O16       2.25486      .   S
    N3     O16       3.39771      .   S
    Zr17   O18       2.26983      .   S
    N9     O18       3.41454      .   S
    Zr17   O19       2.26979      .   S
    N4     O19       3.41435      .   S
    Zr17   O20       2.25275      .   S
    N6     O20       3.39524      .   S
    Zr17   O21       2.25266      .   S
    N8     O21       3.39511      .   S
    Zr22   O23       2.26918  1_565   S
    N11    O23       3.41355      .   S
    Zr22   O24       2.26771      .   S
    N2     O24       3.41200      .   S
    Zr22   O25       2.25175      .   S
    N6     O25       3.39549      .   S
    Zr22   O26       2.25807  1_565   S
    N8     O26       3.40119      .   S
    Zr27   O28       2.26829  1_655   S
    N2     O28       3.41255      .   S
    Zr27   O29       2.25430      .   S
    N3     O29       3.39737      .   S
    Zr27   O30       2.26867  1_565   S
    N11    O30       3.41296      .   S
    Zr27   O31       2.25531  1_665   S
    N1     O31       3.39799      .   S
    Zr32   O33       2.26981  1_655   S
    N9     O33       3.41448      .   S
    Zr32   O34       2.26984      .   S
    N4     O34       3.41449      .   S
    Zr32   O35       2.25258  1_655   S
    N0     O35       3.39507      .   S
    Zr32   O36       2.25264      .   S
    N7     O36       3.39535      .   S
    Zr37   O38       2.26898  1_556   S
    N10    O38       3.41317      .   S
    Zr37   O39       2.25121      .   S
    N7     O39       3.39445      .   S
    Zr37   O40       2.26751  1_655   S
    N5     O40       3.41180      .   S
    Zr37   O41       2.25793  1_656   S
    N0     O41       3.40102      .   S
