# CIF file generated by openbabel 2.4.90, see http://openbabel.sf.net
data_I
_chemical_name_common ''
_cell_length_a 18.604
_cell_length_b 19.052
_cell_length_c 19.059
_cell_angle_alpha 70.331
_cell_angle_beta 70.885
_cell_angle_gamma 108.967
_space_group_name_H-M_alt 'P 1'
_space_group_name_Hall 'P 1'
loop_
    _symmetry_equiv_pos_as_xyz
    x,y,z
loop_
    _atom_site_label
    _atom_site_type_symbol
    _atom_site_fract_x
    _atom_site_fract_y
    _atom_site_fract_z
    _atom_site_occupancy
    N0      N    0.09787   0.69401   0.15357   1.000
    N1      N    0.74686   0.19648   0.59151   1.000
    N2      N    0.16053   0.21348   0.59220   1.000
    N3      N    0.25312   0.80352   0.40849   1.000
    N4      N    0.44941   0.78837   0.80317   1.000
    N5      N    0.05070   0.80325   0.78830   1.000
    N6      N    0.66083   0.40787   0.78621   1.000
    N7      N    0.25013   0.15335   0.15288   1.000
    N8      N    0.33915   0.59212   0.21378   1.000
    N9      N    0.14567   0.79152   0.60409   1.000
    N10     N    0.74985   0.84665   0.84710   1.000
    N11     N    0.24652   0.40856   0.80370   1.000
    N12     N    0.74974   0.60491   0.60484   1.000
    N13     N    0.35463   0.60420   0.79142   1.000
    N14     N    0.83945   0.78652   0.40774   1.000
    N15     N    0.55057   0.21163   0.19683   1.000
    N16     N    0.59795   0.84636   0.30562   1.000
    N17     N    0.90211   0.30599   0.84642   1.000
    N18     N    0.40202   0.15364   0.69431   1.000
    N19     N    0.94928   0.19675   0.21168   1.000
    N20     N    0.75346   0.59144   0.19630   1.000
    N21     N    0.25024   0.39508   0.39515   1.000
    N22     N    0.64535   0.39580   0.20849   1.000
    N23     N    0.85430   0.20848   0.39589   1.000
    Zr24    Zr   0.49999   0.50000   0.99958   1.000
    O25     O    0.56504   0.47155   0.91964   1.000
    O26     O    0.43494   0.52845   0.07994   1.000
    O27     O    0.55877   0.45991   0.08280   1.000
    O28     O    0.39890   0.36193   0.06239   1.000
    O29     O    0.44121   0.54009   0.91676   1.000
    O30     O    0.60108   0.63807   0.93719   1.000
    Zr31    Zr   0.49999   0.50000   0.50000   1.000
    O32     O    0.40650   0.47214   0.60775   1.000
    O33     O    0.40100   0.45953   0.45694   1.000
    O34     O    0.59897   0.54047   0.54306   1.000
    O35     O    0.53746   0.63796   0.42420   1.000
    O36     O    0.46252   0.36204   0.57577   1.000
    O37     O    0.59347   0.52785   0.39225   1.000
    Zr38    Zr   0.49999   0.99960   0.50000   1.000
    O39     O    0.64193   0.08282   0.45719   1.000
    O40     O    0.35805   0.91677   0.54280   1.000
    O41     O    0.53885   0.93705   0.42410   1.000
    O42     O    0.46113   0.06254   0.57588   1.000
    O43     O    0.51436   0.07931   0.39242   1.000
    O44     O    0.48562   0.92029   0.60758   1.000
    Zr45    Zr   0.99962   0.99958   0.50000   1.000
    O46     O    0.05872   0.91678   0.54001   1.000
    O47     O    0.89861   0.93704   0.63825   1.000
    O48     O    0.94089   0.08279   0.45998   1.000
    O49     O    0.93489   0.91976   0.47150   1.000
    O50     O    0.06473   0.07982   0.52849   1.000
    O51     O    0.10100   0.06254   0.36174   1.000
    Zr52    Zr   0.99999   0.50000   0.49999   1.000
    O53     O    0.09915   0.45688   0.45955   1.000
    O54     O    0.90083   0.54312   0.54043   1.000
    O55     O    0.03743   0.57564   0.36201   1.000
    O56     O    0.96255   0.42436   0.63797   1.000
    O57     O    0.09336   0.60769   0.47207   1.000
    O58     O    0.90662   0.39231   0.52792   1.000
    Zr59    Zr   0.99999   0.50000   0.99958   1.000
    O60     O    0.85794   0.45717   0.08285   1.000
    O61     O    0.96118   0.42427   0.93704   1.000
    O62     O    0.14204   0.54283   0.91671   1.000
    O63     O    0.98558   0.39238   0.07929   1.000
    O64     O    0.01440   0.60762   0.92028   1.000
    O65     O    0.03880   0.57573   0.06254   1.000
loop_
    _geom_bond_atom_site_label_1
    _geom_bond_atom_site_label_2
    _geom_bond_distance
    _geom_bond_site_symmetry_2
    _ccdc_geom_bond_type
    Zr24   O25       1.96328      .   S
    N6     O25       3.41006      .   S
    Zr24   O26       1.96858  1_556   S
    N8     O26       3.41548      .   S
    Zr24   O27       2.27117  1_556   S
    N22    O27       3.41483      .   S
    Zr24   O28       2.25378  1_556   S
    N7     O28       3.39652      .   S
    Zr24   O29       2.26554      .   S
    N13    O29       3.40987      .   S
    Zr24   O30       2.25486      .   S
    N10    O30       3.39771      .   S
    Zr31   O32       1.96230      .   S
    N11    O32       3.40653      .   S
    Zr31   O33       2.26983      .   S
    N21    O33       3.41454      .   S
    Zr31   O34       2.26979      .   S
    N12    O34       3.41435      .   S
    Zr31   O35       2.25275      .   S
    N16    O35       3.39524      .   S
    Zr31   O36       2.25266      .   S
    N18    O36       3.39511      .   S
    Zr31   O37       1.96237      .   S
    N20    O37       3.40661      .   S
    Zr38   O39       2.26918  1_565   S
    N23    O39       3.41355      .   S
    Zr38   O40       2.26771      .   S
    N9     O40       3.41200      .   S
    Zr38   O41       2.25175      .   S
    N16    O41       3.39549      .   S
    Zr38   O42       2.25807  1_565   S
    N18    O42       3.40119      .   S
    Zr38   O43       1.96538  1_565   S
    N15    O43       3.41036      .   S
    Zr38   O44       1.96255      .   S
    N4     O44       3.40805      .   S
    Zr45   O46       2.26829  1_655   S
    N9     O46       3.41255      .   S
    Zr45   O47       2.25430      .   S
    N10    O47       3.39737      .   S
    Zr45   O48       2.26867  1_565   S
    N23    O48       3.41296      .   S
    Zr45   O49       1.96275      .   S
    N14    O49       3.41059      .   S
    Zr45   O50       1.97096  1_665   S
    N2     O50       3.41816      .   S
    Zr45   O51       2.25531  1_665   S
    N7     O51       3.39799      .   S
    Zr52   O53       2.26981  1_655   S
    N21    O53       3.41448      .   S
    Zr52   O54       2.26984      .   S
    N12    O54       3.41449      .   S
    Zr52   O55       2.25258  1_655   S
    N0     O55       3.39507      .   S
    Zr52   O56       2.25264      .   S
    N17    O56       3.39535      .   S
    Zr52   O57       1.96292  1_655   S
    N3     O57       3.40754      .   S
    Zr52   O58       1.96283      .   S
    N1     O58       3.40750      .   S
    Zr59   O60       2.26898  1_556   S
    N22    O60       3.41317      .   S
    Zr59   O61       2.25121      .   S
    N17    O61       3.39445      .   S
    Zr59   O62       2.26751  1_655   S
    N13    O62       3.41180      .   S
    Zr59   O63       1.96546  1_556   S
    N19    O63       3.41049      .   S
    Zr59   O64       1.96256  1_655   S
    N5     O64       3.40814      .   S
    Zr59   O65       2.25793  1_656   S
    N0     O65       3.40102      .   S
