# CIF file generated by openbabel 2.4.90, see http://openbabel.sf.net
data_I
_chemical_name_common ''
_cell_length_a 18.604
_cell_length_b 19.052
_cell_length_c 19.059
_cell_angle_alpha 70.331
_cell_angle_beta 70.885
_cell_angle_gamma 108.967
_space_group_name_H-M_alt 'P 1'
_space_group_name_Hall 'P 1'
loop_
    _symmetry_equiv_pos_as_xyz
    x,y,z
loop_
    _atom_site_label
    _atom_site_type_symbol
    _atom_site_fract_x
    _atom_site_fract_y
    _atom_site_fract_z
    _atom_site_occupancy
    Zr0     Zr   0.44450   0.50911   0.06955   1.000
    Zr1     Zr   0.51392   0.06924   0.42196   1.000
    Zr2     Zr   0.93594   0.42207   0.50805   1.000
    Zr3     Zr   0.98605   0.42192   0.06920   1.000
    Zr4     Zr   0.56414   0.50791   0.42211   1.000
    Zr5     Zr   0.05530   0.06948   0.50919   1.000
    Zr6     Zr   0.55548   0.49089   0.93045   1.000
    Zr7     Zr   0.48605   0.93075   0.57805   1.000
    Zr8     Zr   0.06404   0.57793   0.49195   1.000
    Zr9     Zr   0.01393   0.57808   0.93081   1.000
    Zr10    Zr   0.43583   0.49208   0.57790   1.000
    Zr11    Zr   0.94468   0.93052   0.49081   1.000
    Zr12    Zr   0.56724   0.45649   0.09925   1.000
    Zr13    Zr   0.37857   0.34083   0.07574   1.000
    Zr14    Zr   0.66658   0.09942   0.44445   1.000
    Zr15    Zr   0.45394   0.07536   0.58458   1.000
    Zr16    Zr   0.11112   0.44415   0.45572   1.000
    Zr17    Zr   0.03835   0.58385   0.34094   1.000
    Zr18    Zr   0.83331   0.44448   0.09954   1.000
    Zr19    Zr   0.04593   0.58428   0.07547   1.000
    Zr20    Zr   0.38896   0.45570   0.44433   1.000
    Zr21    Zr   0.46163   0.34097   0.58402   1.000
    Zr22    Zr   0.93258   0.09927   0.45670   1.000
    Zr23    Zr   0.12149   0.07581   0.34063   1.000
    Zr24    Zr   0.43274   0.54351   0.90075   1.000
    Zr25    Zr   0.62141   0.65917   0.92426   1.000
    Zr26    Zr   0.33340   0.90058   0.55550   1.000
    Zr27    Zr   0.54604   0.92463   0.41543   1.000
    Zr28    Zr   0.88885   0.55585   0.54428   1.000
    Zr29    Zr   0.96163   0.41615   0.65906   1.000
    Zr30    Zr   0.16667   0.55552   0.90046   1.000
    Zr31    Zr   0.95405   0.41572   0.92453   1.000
    Zr32    Zr   0.61102   0.54429   0.55568   1.000
    Zr33    Zr   0.53834   0.65902   0.41598   1.000
    Zr34    Zr   0.06739   0.90072   0.54330   1.000
    Zr35    Zr   0.87849   0.92419   0.65937   1.000
    Zr36    Zr   0.50483   0.46849   0.13550   1.000
    Zr37    Zr   0.36136   0.38198   0.11323   1.000
    Zr38    Zr   0.59401   0.46283   0.02559   1.000
    Zr39    Zr   0.44641   0.36974   0.00000   1.000
    Zr40    Zr   0.64041   0.13553   0.39646   1.000
    Zr41    Zr   0.47421   0.11242   0.50625   1.000
    Zr42    Zr   0.61960   0.02610   0.51153   1.000
    Zr43    Zr   0.45201   0.00000   0.62525   1.000
    Zr44    Zr   0.03705   0.39643   0.46696   1.000
    Zr45    Zr   0.98014   0.50565   0.38142   1.000
    Zr46    Zr   0.13111   0.51106   0.46280   1.000
    Zr47    Zr   0.07691   0.62429   0.37052   1.000
    Zr48    Zr   0.85949   0.39647   0.13565   1.000
    Zr49    Zr   0.02549   0.50592   0.11262   1.000
    Zr50    Zr   0.88031   0.51153   0.02619   1.000
    Zr51    Zr   0.04775   0.62497   0.00000   1.000
    Zr52    Zr   0.46313   0.46690   0.39660   1.000
    Zr53    Zr   0.51995   0.38134   0.50579   1.000
    Zr54    Zr   0.36880   0.46296   0.51117   1.000
    Zr55    Zr   0.42292   0.37062   0.62439   1.000
    Zr56    Zr   0.99485   0.13552   0.46874   1.000
    Zr57    Zr   0.13850   0.11315   0.38190   1.000
    Zr58    Zr   0.90609   0.02570   0.46291   1.000
    Zr59    Zr   0.05381   0.00000   0.36952   1.000
    Zr60    Zr   0.49515   0.53150   0.86445   1.000
    Zr61    Zr   0.63862   0.61802   0.88677   1.000
    Zr62    Zr   0.40598   0.53717   0.97441   1.000
    Zr63    Zr   0.55357   0.63026   0.99417   1.000
    Zr64    Zr   0.35957   0.86447   0.60355   1.000
    Zr65    Zr   0.52576   0.88758   0.49376   1.000
    Zr66    Zr   0.38037   0.97390   0.48848   1.000
    Zr67    Zr   0.54797   0.99435   0.37476   1.000
    Zr68    Zr   0.96293   0.60357   0.53304   1.000
    Zr69    Zr   0.01985   0.49435   0.61858   1.000
    Zr70    Zr   0.86887   0.48894   0.53700   1.000
    Zr71    Zr   0.92307   0.37571   0.62948   1.000
    Zr72    Zr   0.14049   0.60353   0.86436   1.000
    Zr73    Zr   0.97449   0.49408   0.88739   1.000
    Zr74    Zr   0.11967   0.48847   0.97380   1.000
    Zr75    Zr   0.95224   0.37503   0.99416   1.000
    Zr76    Zr   0.53685   0.53309   0.60340   1.000
    Zr77    Zr   0.48002   0.61865   0.49422   1.000
    Zr78    Zr   0.63117   0.53703   0.48884   1.000
    Zr79    Zr   0.57705   0.62937   0.37562   1.000
    Zr80    Zr   0.00000   0.86447   0.53126   1.000
    Zr81    Zr   0.86148   0.88685   0.61810   1.000
    Zr82    Zr   0.09389   0.97430   0.53709   1.000
    Zr83    Zr   0.94617   0.99411   0.63048   1.000
    O84     O    0.41249   0.35528   0.03787   1.000
    O85     O    0.50095   0.43031   0.96522   1.000
    O86     O    0.04684   0.60463   0.03773   1.000
    O87     O    0.03084   0.60153   0.96540   1.000
    O88     O    0.58063   0.45966   0.06242   1.000
    O89     O    0.57475   0.47686   0.97802   1.000
    O90     O    0.85681   0.47801   0.06286   1.000
    O91     O    0.94712   0.54481   0.97850   1.000
    O92     O    0.00577   0.46392   0.09091   1.000
    O93     O    0.92277   0.40920   0.10242   1.000
    O94     O    0.05286   0.45519   0.02150   1.000
    O95     O    0.96914   0.39848   0.03168   1.000
    O96     O    0.40293   0.44554   0.09139   1.000
    O97     O    0.47466   0.48880   0.10252   1.000
    O98     O    0.42524   0.52314   0.02198   1.000
    O99     O    0.49903   0.56968   0.03186   1.000
    O100    O    0.03571   0.54510   0.09404   1.000
    O101    O    0.36996   0.36140   0.09448   1.000
    O102    O    0.53604   0.46249   0.11737   1.000
    O103    O    0.84640   0.42048   0.11759   1.000
    O104    O    0.08765   0.03790   0.35507   1.000
    O105    O    0.13000   0.09448   0.36126   1.000
    O106    O    0.05763   0.60407   0.35573   1.000
    O107    O    0.00924   0.54475   0.36118   1.000
    O108    O    0.99924   0.96526   0.43016   1.000
    O109    O    0.07048   0.60111   0.43123   1.000
    O110    O    0.54700   0.95949   0.39509   1.000
    O111    O    0.53095   0.03180   0.39836   1.000
    O112    O    0.55770   0.64420   0.39580   1.000
    O113    O    0.57060   0.56864   0.39886   1.000
    O114    O    0.95804   0.46386   0.44473   1.000
    O115    O    0.09690   0.09131   0.44554   1.000
    O116    O    0.57717   0.10239   0.40921   1.000
    O117    O    0.65349   0.11747   0.42045   1.000
    O118    O    0.51363   0.48741   0.40935   1.000
    O119    O    0.42604   0.46130   0.42046   1.000
    O120    O    0.53590   0.90611   0.45459   1.000
    O121    O    0.50918   0.63884   0.45510   1.000
    O122    O    0.44715   0.02157   0.45522   1.000
    O123    O    0.49407   0.09083   0.46410   1.000
    O124    O    0.59766   0.52247   0.45547   1.000
    O125    O    0.54205   0.44463   0.46395   1.000
    O126    O    0.37888   0.45933   0.47775   1.000
    O127    O    0.64309   0.06276   0.47799   1.000
    O128    O    0.12112   0.47761   0.45926   1.000
    O129    O    0.07409   0.42029   0.46134   1.000
    O130    O    0.91934   0.06249   0.45980   1.000
    O131    O    0.96372   0.11739   0.46272   1.000
    O132    O    0.09758   0.54450   0.47737   1.000
    O133    O    0.92538   0.97811   0.47686   1.000
    O134    O    0.98649   0.40925   0.48750   1.000
    O135    O    0.02508   0.10250   0.48896   1.000
    O136    O    0.35689   0.93724   0.52199   1.000
    O137    O    0.62110   0.54066   0.52226   1.000
    O138    O    0.97234   0.89750   0.51103   1.000
    O139    O    0.90308   0.90868   0.55445   1.000
    O140    O    0.01349   0.59075   0.51249   1.000
    O141    O    0.04194   0.53614   0.55526   1.000
    O142    O    0.50591   0.90917   0.53590   1.000
    O143    O    0.45793   0.55537   0.53606   1.000
    O144    O    0.49079   0.36116   0.54490   1.000
    O145    O    0.46408   0.09389   0.54541   1.000
    O146    O    0.90240   0.45550   0.52252   1.000
    O147    O    0.92950   0.39889   0.56876   1.000
    O148    O    0.07460   0.02189   0.52314   1.000
    O149    O    0.00074   0.03179   0.56983   1.000
    O150    O    0.40232   0.47752   0.54453   1.000
    O151    O    0.55283   0.97842   0.54479   1.000
    O152    O    0.03370   0.88260   0.53728   1.000
    O153    O    0.92589   0.57971   0.53866   1.000
    O154    O    0.87886   0.52239   0.54064   1.000
    O155    O    0.08064   0.93751   0.54019   1.000
    O156    O    0.34648   0.88253   0.57952   1.000
    O157    O    0.57393   0.53869   0.57954   1.000
    O158    O    0.48634   0.51259   0.59065   1.000
    O159    O    0.42938   0.43135   0.60114   1.000
    O160    O    0.42281   0.89761   0.59080   1.000
    O161    O    0.46903   0.96538   0.60165   1.000
    O162    O    0.44227   0.35580   0.60420   1.000
    O163    O    0.45297   0.03768   0.60491   1.000
    O164    O    0.86998   0.90552   0.63873   1.000
    O165    O    0.99074   0.45525   0.63882   1.000
    O166    O    0.94235   0.39593   0.64427   1.000
    O167    O    0.91233   0.95915   0.64492   1.000
    O168    O    0.15358   0.57952   0.88241   1.000
    O169    O    0.07721   0.59080   0.89758   1.000
    O170    O    0.46394   0.53751   0.88260   1.000
    O171    O    0.52532   0.51119   0.89745   1.000
    O172    O    0.63001   0.63860   0.90551   1.000
    O173    O    0.59705   0.55446   0.90861   1.000
    O174    O    0.96427   0.45490   0.90596   1.000
    O175    O    0.99421   0.53608   0.90910   1.000
    O176    O    0.14317   0.52199   0.93713   1.000
    O177    O    0.41936   0.54034   0.93758   1.000
    O178    O    0.58749   0.64471   0.95921   1.000
    O179    O    0.95315   0.39537   0.95934   1.000
    O180    O    0.49999   0.50000   0.00000   1.000
    O181    O    0.49999   0.00000   0.50000   1.000
    O182    O    0.99999   0.50000   0.50000   1.000
    O183    O    0.99999   0.50000   0.00000   1.000
    O184    O    0.49999   0.50000   0.50000   1.000
    O185    O    0.99999   1.00000   0.50000   1.000
    N186    N    0.09787   0.69401   0.15357   1.000
    O187    O    0.07761   0.65146   0.12550   1.000
    O188    O    0.07488   0.65129   0.22403   1.000
    N189    N    0.74686   0.19648   0.59151   1.000
    O190    O    0.81326   0.28461   0.55585   1.000
    N191    N    0.16053   0.21348   0.59220   1.000
    O192    O    0.12983   0.16006   0.55698   1.000
    N193    N    0.25312   0.80352   0.40849   1.000
    O194    O    0.18672   0.71539   0.44415   1.000
    N195    N    0.44941   0.78837   0.80317   1.000
    O196    O    0.47125   0.84098   0.71517   1.000
    N197    N    0.05070   0.80325   0.78830   1.000
    O198    O    0.02881   0.71524   0.84098   1.000
    N199    N    0.66083   0.40787   0.78621   1.000
    O200    O    0.63009   0.44310   0.83969   1.000
    N201    N    0.25013   0.15335   0.15288   1.000
    O202    O    0.29781   0.22385   0.12520   1.000
    O203    O    0.20237   0.12550   0.22347   1.000
    N204    N    0.33915   0.59212   0.21378   1.000
    O205    O    0.36989   0.55690   0.16030   1.000
    N206    N    0.14567   0.79152   0.60409   1.000
    O207    O    0.21611   0.83395   0.58560   1.000
    O208    O    0.11782   0.83399   0.58003   1.000
    N209    N    0.74985   0.84665   0.84710   1.000
    O210    O    0.79760   0.87449   0.77650   1.000
    O211    O    0.70217   0.77614   0.87479   1.000
    N212    N    0.24652   0.40856   0.80370   1.000
    O213    O    0.31302   0.44428   0.71549   1.000
    N214    N    0.74974   0.60491   0.60484   1.000
    O215    O    0.80167   0.58623   0.58088   1.000
    O216    O    0.69796   0.58094   0.58612   1.000
    N217    N    0.35463   0.60420   0.79142   1.000
    O218    O    0.28410   0.58566   0.83384   1.000
    O219    O    0.38242   0.58017   0.83394   1.000
    N220    N    0.83945   0.78652   0.40774   1.000
    O221    O    0.87015   0.83994   0.44299   1.000
    N222    N    0.55057   0.21163   0.19683   1.000
    O223    O    0.52873   0.15902   0.28484   1.000
    N224    N    0.59795   0.84636   0.30562   1.000
    O225    O    0.57771   0.87451   0.34821   1.000
    O226    O    0.57492   0.77592   0.34841   1.000
    N227    N    0.90211   0.30599   0.84642   1.000
    O228    O    0.92237   0.34854   0.87450   1.000
    O229    O    0.92510   0.34872   0.77595   1.000
    N230    N    0.40202   0.15364   0.69431   1.000
    O231    O    0.42227   0.12549   0.65177   1.000
    O232    O    0.42505   0.22408   0.65154   1.000
    N233    N    0.94928   0.19675   0.21168   1.000
    O234    O    0.97117   0.28476   0.15900   1.000
    N235    N    0.75346   0.59144   0.19630   1.000
    O236    O    0.68695   0.55571   0.28450   1.000
    N237    N    0.25024   0.39508   0.39515   1.000
    O238    O    0.30202   0.41906   0.41388   1.000
    O239    O    0.19831   0.41376   0.41911   1.000
    N240    N    0.64535   0.39580   0.20849   1.000
    O241    O    0.61756   0.41983   0.16601   1.000
    O242    O    0.71588   0.41434   0.16611   1.000
    N243    N    0.85430   0.20848   0.39589   1.000
    O244    O    0.78387   0.16605   0.41438   1.000
    O245    O    0.88216   0.16601   0.41997   1.000
loop_
    _geom_bond_atom_site_label_1
    _geom_bond_atom_site_label_2
    _geom_bond_distance
    _geom_bond_site_symmetry_2
    _ccdc_geom_bond_type
    Zr39   O84       0.67077      .   S
    Zr13   O84       0.67077      .   S
    Zr39   O85       1.04121  1_554   S
    Zr6    O85       1.04121      .   S
    Zr51   O86       0.68400      .   S
    Zr19   O86       0.68400      .   S
    Zr51   O87       0.98794  1_554   S
    Zr9    O87       0.98794      .   S
    Zr38   O88       0.63684      .   S
    Zr12   O88       0.63684      .   S
    Zr38   O89       1.06479  1_554   S
    Zr6    O89       1.06479      .   S
    Zr50   O90       0.63678      .   S
    Zr18   O90       0.63678      .   S
    Zr50   O91       1.06441  1_554   S
    Zr9    O91       1.06441  1_455   S
    Zr3    O92       1.03806  1_655   S
    Zr49   O92       1.03806      .   S
    Zr3    O93       1.03372      .   S
    Zr48   O93       1.03372      .   S
    Zr3    O94       1.06446  1_655   S
    Zr74   O94       1.06446  1_556   S
    Zr3    O95       1.03964      .   S
    Zr75   O95       1.03964  1_556   S
    Zr0    O96       1.03875      .   S
    Zr37   O96       1.03875      .   S
    Zr0    O97       1.03350      .   S
    Zr36   O97       1.03350      .   S
    Zr0    O98       1.06476      .   S
    Zr62   O98       1.06476  1_556   S
    Zr0    O99       1.03959      .   S
    Zr63   O99       1.03959  1_556   S
    Zr19   O100      0.63598      .   S
    Zr49   O100      0.63598      .   S
    Zr13   O101      0.63602      .   S
    Zr37   O101      0.63602      .   S
    Zr12   O102      0.63864      .   S
    Zr36   O102      0.63864      .   S
    Zr18   O103      0.63889      .   S
    Zr48   O103      0.63889      .   S
    Zr23   O104      0.67137      .   S
    Zr59   O104      0.67137      .   S
    Zr23   O105      0.63606      .   S
    Zr57   O105      0.63606      .   S
    Zr17   O106      0.63716      .   S
    Zr47   O106      0.63716      .   S
    Zr17   O107      0.63603      .   S
    Zr45   O107      0.63603  1_655   S
    Zr59   O108      1.04134  1_445   S
    Zr11   O108      1.04134      .   S
    Zr47   O109      1.03890      .   S
    Zr8    O109      1.03890      .   S
    Zr67   O110      0.63722      .   S
    Zr27   O110      0.63722      .   S
    Zr67   O111      1.03978  1_565   S
    Zr1    O111      1.03978      .   S
    Zr79   O112      0.63713      .   S
    Zr33   O112      0.63713      .   S
    Zr79   O113      1.03885      .   S
    Zr4    O113      1.03885      .   S
    Zr45   O114      1.03664      .   S
    Zr2    O114      1.03664      .   S
    Zr57   O115      1.03902      .   S
    Zr5    O115      1.03902      .   S
    Zr40   O116      1.03373      .   S
    Zr1    O116      1.03373      .   S
    Zr40   O117      0.63886      .   S
    Zr14   O117      0.63886      .   S
    Zr52   O118      1.03419      .   S
    Zr4    O118      1.03419      .   S
    Zr52   O119      0.63890      .   S
    Zr20   O119      0.63890      .   S
    Zr27   O120      0.63600      .   S
    Zr65   O120      0.63600      .   S
    Zr33   O121      0.63604      .   S
    Zr77   O121      0.63604      .   S
    Zr1    O122      1.06453      .   S
    Zr66   O122      1.06453  1_565   S
    Zr1    O123      1.03808      .   S
    Zr41   O123      1.03808      .   S
    Zr4    O124      1.06587      .   S
    Zr78   O124      1.06587      .   S
    Zr4    O125      1.03658      .   S
    Zr53   O125      1.03658      .   S
    Zr20   O126      0.63681      .   S
    Zr54   O126      0.63681      .   S
    Zr14   O127      0.63680      .   S
    Zr42   O127      0.63680      .   S
    Zr16   O128      0.63680      .   S
    Zr46   O128      0.63680      .   S
    Zr16   O129      0.63891      .   S
    Zr44   O129      0.63891      .   S
    Zr22   O130      0.63689      .   S
    Zr58   O130      0.63689      .   S
    Zr22   O131      0.63882      .   S
    Zr56   O131      0.63882      .   S
    Zr46   O132      1.06586      .   S
    Zr8    O132      1.06586      .   S
    Zr58   O133      1.06461  1_545   S
    Zr11   O133      1.06461      .   S
    Zr44   O134      1.03446  1_455   S
    Zr2    O134      1.03446      .   S
    Zr56   O135      1.03406  1_655   S
    Zr5    O135      1.03406      .   S
    Zr66   O136      0.63657      .   S
    Zr26   O136      0.63657      .   S
    Zr78   O137      0.63681      .   S
    Zr32   O137      0.63681      .   S
    Zr11   O138      0.99317      .   S
    Zr80   O138      0.99317  1_455   S
    Zr11   O139      1.03902      .   S
    Zr81   O139      1.03902      .   S
    Zr8    O140      1.03446      .   S
    Zr68   O140      1.03446  1_655   S
    Zr8    O141      1.03664      .   S
    Zr69   O141      1.03664      .   S
    Zr65   O142      1.03809      .   S
    Zr7    O142      1.03809      .   S
    Zr77   O143      1.03658      .   S
    Zr10   O143      1.03658      .   S
    Zr53   O144      0.63598      .   S
    Zr21   O144      0.63598      .   S
    Zr41   O145      0.63600      .   S
    Zr15   O145      0.63600      .   S
    Zr2    O146      1.06534      .   S
    Zr70   O146      1.06534      .   S
    Zr2    O147      1.03890      .   S
    Zr71   O147      1.03890      .   S
    Zr5    O148      1.06461      .   S
    Zr82   O148      1.06461  1_565   S
    Zr5    O149      1.03976      .   S
    Zr83   O149      1.03976  1_665   S
    Zr54   O150      1.06586      .   S
    Zr10   O150      1.06586      .   S
    Zr42   O151      1.06454  1_545   S
    Zr7    O151      1.06454      .   S
    Zr80   O152      0.67711      .   S
    Zr34   O152      0.67711      .   S
    Zr68   O153      0.63890      .   S
    Zr28   O153      0.63890      .   S
    Zr70   O154      0.63782      .   S
    Zr28   O154      0.63782      .   S
    Zr82   O155      0.63691      .   S
    Zr34   O155      0.63691      .   S
    Zr26   O156      0.63923      .   S
    Zr64   O156      0.63923      .   S
    Zr32   O157      0.63887      .   S
    Zr76   O157      0.63887      .   S
    Zr10   O158      1.03415      .   S
    Zr76   O158      1.03415      .   S
    Zr10   O159      1.03884      .   S
    Zr55   O159      1.03884      .   S
    Zr7    O160      1.03373      .   S
    Zr64   O160      1.03373      .   S
    Zr7    O161      0.98991      .   S
    Zr43   O161      0.98991  1_545   S
    Zr21   O162      0.63717      .   S
    Zr55   O162      0.63717      .   S
    Zr15   O163      0.68243      .   S
    Zr43   O163      0.68243      .   S
    Zr81   O164      0.63606      .   S
    Zr35   O164      0.63606      .   S
    Zr69   O165      0.63603  1_455   S
    Zr29   O165      0.63603      .   S
    Zr71   O166      0.63716      .   S
    Zr29   O166      0.63716      .   S
    Zr83   O167      0.63737      .   S
    Zr35   O167      0.63737      .   S
    Zr72   O168      0.63885      .   S
    Zr30   O168      0.63885      .   S
    Zr72   O169      1.03372      .   S
    Zr9    O169      1.03372      .   S
    Zr60   O170      0.63879      .   S
    Zr24   O170      0.63879      .   S
    Zr60   O171      1.03382      .   S
    Zr6    O171      1.03382      .   S
    Zr61   O172      0.63602      .   S
    Zr25   O172      0.63602      .   S
    Zr61   O173      1.03876      .   S
    Zr6    O173      1.03876      .   S
    Zr73   O174      0.63597      .   S
    Zr31   O174      0.63597      .   S
    Zr73   O175      1.03806      .   S
    Zr9    O175      1.03806  1_455   S
    Zr30   O176      0.63672      .   S
    Zr74   O176      0.63672      .   S
    Zr24   O177      0.63685      .   S
    Zr62   O177      0.63685      .   S
    Zr25   O178      0.63723      .   S
    Zr63   O178      0.63723      .   S
    Zr31   O179      0.63723      .   S
    Zr75   O179      0.63723      .   S
    Zr0    O180      1.49269      .   S
    Zr6    O180      1.49269  1_556   S
    Zr1    O181      1.49140      .   S
    Zr7    O181      1.49141  1_565   S
    Zr2    O182      1.49155      .   S
    Zr8    O182      1.49155  1_455   S
    Zr3    O183      1.49126      .   S
    Zr9    O183      1.49126  1_456   S
    Zr4    O184      1.49101      .   S
    Zr10   O184      1.49101      .   S
    Zr5    O185      1.49346  1_445   S
    Zr11   O185      1.49346      .   S
    N186   O187      1.14505      .   S
    Zr19   O187      1.89566      .   S
    N186   O188      1.14468      .   S
    Zr17   O188      1.89501      .   S
    N189   O190      1.46316      .   S
    Zr2    O190      2.45849      .   S
    N191   O192      1.46479      .   S
    Zr5    O192      2.46171      .   S
    N193   O194      1.46315      .   S
    Zr8    O194      2.45847      .   S
    N195   O196      1.46303      .   S
    Zr7    O196      2.45848      .   S
    N197   O198      1.46305      .   S
    Zr9    O198      2.45861      .   S
    N199   O200      1.46453      .   S
    Zr6    O200      2.46100      .   S
    N201   O202      1.14513      .   S
    Zr13   O202      1.89585      .   S
    N201   O203      1.14505      .   S
    Zr23   O203      1.89648      .   S
    N204   O205      1.46444      .   S
    Zr0    O205      2.46092      .   S
    N206   O207      1.14544      .   S
    Zr26   O207      1.89512      .   S
    N206   O208      1.14548      .   S
    Zr34   O208      1.89542      .   S
    N209   O210      1.14523      .   S
    Zr35   O210      1.89608      .   S
    N209   O211      1.14510      .   S
    Zr25   O211      1.89582      .   S
    N212   O213      1.46295      .   S
    Zr10   O213      2.45812      .   S
    N214   O215      1.14571      .   S
    Zr28   O215      1.89573      .   S
    N214   O216      1.14562      .   S
    Zr32   O216      1.89560      .   S
    N217   O218      1.14540      .   S
    Zr30   O218      1.89520      .   S
    N217   O219      1.14550      .   S
    Zr24   O219      1.89531      .   S
    N220   O221      1.46527      .   S
    Zr11   O221      2.46219      .   S
    N222   O223      1.46305      .   S
    Zr1    O223      2.45850      .   S
    N224   O225      1.14556      .   S
    Zr27   O225      1.89622      .   S
    N224   O226      1.14467      .   S
    Zr33   O226      1.89513      .   S
    N227   O228      1.14510      .   S
    Zr31   O228      1.89570      .   S
    N227   O229      1.14490      .   S
    Zr29   O229      1.89467      .   S
    N230   O231      1.14502      .   S
    Zr15   O231      1.89568      .   S
    N230   O232      1.14464      .   S
    Zr21   O232      1.89496      .   S
    N233   O234      1.46303      .   S
    Zr3    O234      2.45842      .   S
    N235   O236      1.46295      .   S
    Zr4    O236      2.45830      .   S
    N237   O238      1.14576      .   S
    Zr20   O238      1.89574      .   S
    N237   O239      1.14574      .   S
    Zr16   O239      1.89575      .   S
    N240   O241      1.14488      .   S
    Zr12   O241      1.89470      .   S
    N240   O242      1.14520      .   S
    Zr18   O242      1.89505      .   S
    N243   O244      1.14544      .   S
    Zr14   O244      1.89529      .   S
    N243   O245      1.14557      .   S
    Zr22   O245      1.89548      .   S
