# CIF file generated by openbabel 2.4.90, see http://openbabel.sf.net
data_I
_chemical_name_common ''
_cell_length_a 8.578
_cell_length_b 13.866
_cell_length_c 21.033
_cell_angle_alpha 109.128
_cell_angle_beta 92.71
_cell_angle_gamma 89.975
_space_group_name_H-M_alt 'P 1'
_space_group_name_Hall 'P 1'
loop_
    _symmetry_equiv_pos_as_xyz
    x,y,z
loop_
    _atom_site_label
    _atom_site_type_symbol
    _atom_site_fract_x
    _atom_site_fract_y
    _atom_site_fract_z
    _atom_site_occupancy
    Cu0     Cu   0.25007   0.00132   0.75011   1.000
    Cu1     Cu   0.25038   0.50032   0.25005   1.000
    Cu2     Cu   0.24999   0.50135   0.75009   1.000
    Cu3     Cu   0.75027   0.00030   0.25004   1.000
    Cu4     Cu   0.75006   0.00133   0.75011   1.000
    Cu5     Cu   0.75035   0.50033   0.25005   1.000
    Cu6     Cu   0.74999   0.50135   0.75009   1.000
    Cu7     Cu   0.25047   0.25029   0.25004   1.000
    Cu8     Cu   0.25026   0.25121   0.74999   1.000
    Cu9     Cu   0.25037   0.75023   0.25001   1.000
    Cu10    Cu   0.25021   0.75119   0.74997   1.000
    Cu11    Cu   0.75045   0.25029   0.25004   1.000
    Cu12    Cu   0.75024   0.25121   0.74999   1.000
    Cu13    Cu   0.75033   0.75024   0.25001   1.000
    Cu14    Cu   0.75023   0.75119   0.74997   1.000
    P15     P    0.49180   0.08891   0.17674   1.000
    P16     P    0.49168   0.08976   0.67674   1.000
    P17     P    0.49180   0.58882   0.17672   1.000
    P18     P    0.49160   0.58976   0.67673   1.000
    P19     P    0.99178   0.08890   0.17674   1.000
    P20     P    0.99165   0.08977   0.67675   1.000
    P21     P    0.99179   0.58884   0.17673   1.000
    P22     P    0.99159   0.58976   0.67671   1.000
    P23     P    0.00880   0.41171   0.32329   1.000
    P24     P    0.00854   0.41273   0.82331   1.000
    P25     P    0.00871   0.91164   0.32329   1.000
    P26     P    0.00856   0.91269   0.82300   1.000
    P27     P    0.50880   0.41173   0.32329   1.000
    P28     P    0.50851   0.41272   0.82331   1.000
    P29     P    0.50868   0.91165   0.32330   1.000
    P30     P    0.50855   0.91269   0.82330   1.000
    H31     H    0.15159   0.48405   0.09455   1.000
    Cu32    Cu   0.25032   0.00030   0.25005   1.000
    H33     H    0.15184   0.48506   0.59471   1.000
    H34     H    0.15176   0.98432   0.09453   1.000
    H35     H    0.15191   0.98512   0.59470   1.000
    H36     H    0.65153   0.48400   0.09450   1.000
    H37     H    0.65182   0.48506   0.59473   1.000
    H38     H    0.65176   0.98436   0.09453   1.000
    H39     H    0.65196   0.98515   0.59478   1.000
    H40     H    0.38285   0.45476   0.03571   1.000
    H41     H    0.38315   0.45490   0.53589   1.000
    H42     H    0.38290   0.95487   0.03575   1.000
    H43     H    0.38323   0.95493   0.53595   1.000
    H44     H    0.88285   0.45476   0.03574   1.000
    H45     H    0.88311   0.45490   0.53588   1.000
    H46     H    0.88287   0.95488   0.03576   1.000
    H47     H    0.88315   0.95495   0.53595   1.000
    H48     H    0.34877   0.38942   0.40569   1.000
    H49     H    0.34839   0.39006   0.90553   1.000
    H50     H    0.34884   0.88928   0.40572   1.000
    H51     H    0.34845   0.89002   0.90554   1.000
    H52     H    0.84872   0.38939   0.40567   1.000
    H53     H    0.84835   0.39011   0.90554   1.000
    H54     H    0.84879   0.88928   0.40571   1.000
    H55     H    0.84844   0.89002   0.90553   1.000
    H56     H    0.11736   0.41897   0.46465   1.000
    H57     H    0.11699   0.41885   0.96444   1.000
    H58     H    0.11739   0.91896   0.46471   1.000
    H59     H    0.11698   0.91891   0.96447   1.000
    H60     H    0.61738   0.41899   0.46467   1.000
    H61     H    0.61699   0.41883   0.96442   1.000
    H62     H    0.61743   0.91897   0.46469   1.000
    H63     H    0.61702   0.91893   0.96447   1.000
    H64     H    0.34832   0.01596   0.40540   1.000
    H65     H    0.34844   0.01689   0.90558   1.000
    H66     H    0.34846   0.51614   0.40538   1.000
    H67     H    0.34846   0.51699   0.90562   1.000
    H68     H    0.84832   0.01596   0.40539   1.000
    H69     H    0.84840   0.01689   0.90500   1.000
    H70     H    0.84841   0.51611   0.40530   1.000
    H71     H    0.84850   0.51702   0.90563   1.000
    H72     H    0.11722   0.04593   0.46417   1.000
    H73     H    0.11746   0.04607   0.96433   1.000
    H74     H    0.11724   0.54600   0.46416   1.000
    H75     H    0.11749   0.54609   0.96438   1.000
    H76     H    0.61723   0.04596   0.46416   1.000
    H77     H    0.61744   0.04610   0.96432   1.000
    H78     H    0.61725   0.54602   0.46419   1.000
    H79     H    0.61747   0.54607   0.96435   1.000
    H80     H    0.15185   0.11106   0.09432   1.000
    H81     H    0.15160   0.11168   0.59400   1.000
    H82     H    0.15205   0.61081   0.09431   1.000
    H83     H    0.15155   0.61166   0.59417   1.000
    H84     H    0.65179   0.11109   0.09431   1.000
    H85     H    0.65161   0.11171   0.59422   1.000
    H86     H    0.65209   0.61075   0.09430   1.000
    H87     H    0.65154   0.61166   0.59419   1.000
    H88     H    0.38302   0.08197   0.03549   1.000
    H89     H    0.38281   0.08187   0.53533   1.000
    H90     H    0.38313   0.58195   0.03554   1.000
    H91     H    0.38273   0.58188   0.53530   1.000
    H92     H    0.88304   0.08198   0.03551   1.000
    H93     H    0.88275   0.08187   0.53532   1.000
    H94     H    0.88307   0.58194   0.03555   1.000
    H95     H    0.88271   0.58189   0.53529   1.000
    C96     C    0.07477   0.04791   0.09481   1.000
    C97     C    0.07470   0.04853   0.59483   1.000
    C98     C    0.07478   0.54776   0.09480   1.000
    C99     C    0.07465   0.54851   0.59479   1.000
    C100    C    0.57473   0.04794   0.09480   1.000
    C101    C    0.57473   0.04853   0.59483   1.000
    C102    C    0.57476   0.54772   0.09479   1.000
    C103    C    0.57464   0.54851   0.59482   1.000
    C104    C    0.45914   0.01728   0.03350   1.000
    C105    C    0.45917   0.01737   0.53352   1.000
    C106    C    0.45916   0.51720   0.03350   1.000
    C107    C    0.45911   0.51739   0.53350   1.000
    C108    C    0.95914   0.01729   0.03352   1.000
    C109    C    0.95912   0.01737   0.53352   1.000
    C110    C    0.95912   0.51721   0.03352   1.000
    C111    C    0.95908   0.51739   0.53348   1.000
    C112    C    0.42567   0.45265   0.40519   1.000
    C113    C    0.42547   0.45331   0.90522   1.000
    C114    C    0.42563   0.95256   0.40522   1.000
    C115    C    0.42549   0.95328   0.90521   1.000
    C116    C    0.92562   0.45263   0.40518   1.000
    C117    C    0.92548   0.45333   0.90523   1.000
    C118    C    0.92561   0.95254   0.40521   1.000
    C119    C    0.92547   0.95329   0.90520   1.000
    C120    C    0.04113   0.48355   0.46650   1.000
    C121    C    0.04107   0.48366   0.96653   1.000
    C122    C    0.04113   0.98352   0.46653   1.000
    C123    C    0.04104   0.98370   0.96651   1.000
    C124    C    0.54113   0.48356   0.46652   1.000
    C125    C    0.54107   0.48365   0.96651   1.000
    C126    C    0.54118   0.98354   0.46650   1.000
    C127    C    0.54107   0.98371   0.96650   1.000
    O128    O    0.39982   0.49777   0.18337   1.000
    O129    O    0.39955   0.49880   0.68344   1.000
    O130    O    0.39980   0.99789   0.18338   1.000
    O131    O    0.39962   0.99884   0.68345   1.000
    O132    O    0.89980   0.49779   0.18338   1.000
    O133    O    0.89954   0.49880   0.68343   1.000
    O134    O    0.89978   0.99788   0.18338   1.000
    O135    O    0.89959   0.99884   0.68345   1.000
    O136    O    0.10074   0.31400   0.31672   1.000
    O137    O    0.10065   0.31508   0.81668   1.000
    O138    O    0.10062   0.81391   0.31669   1.000
    O139    O    0.10065   0.81504   0.81667   1.000
    O140    O    0.60075   0.31402   0.31670   1.000
    O141    O    0.60062   0.31507   0.81667   1.000
    O142    O    0.60060   0.81393   0.31669   1.000
    O143    O    0.60065   0.81503   0.81666   1.000
    O144    O    0.10059   0.00272   0.31666   1.000
    O145    O    0.10031   0.00387   0.81670   1.000
    O146    O    0.10064   0.50284   0.31667   1.000
    O147    O    0.10028   0.50393   0.81673   1.000
    O148    O    0.60056   0.00273   0.31660   1.000
    O149    O    0.60031   0.00385   0.81670   1.000
    O150    O    0.60062   0.50287   0.31667   1.000
    O151    O    0.60026   0.50392   0.81672   1.000
    O152    O    0.39990   0.18664   0.18329   1.000
    O153    O    0.39977   0.18747   0.68326   1.000
    O154    O    0.39987   0.68654   0.18326   1.000
    O155    O    0.39972   0.68747   0.68324   1.000
    O156    O    0.89988   0.18663   0.18328   1.000
    O157    O    0.89977   0.18748   0.68320   1.000
    O158    O    0.89987   0.68656   0.18327   1.000
    O159    O    0.89972   0.68747   0.68323   1.000
    O160    O    0.13587   0.11566   0.23055   1.000
    O161    O    0.13571   0.11660   0.73057   1.000
    O162    O    0.13588   0.61563   0.23053   1.000
    O163    O    0.13561   0.61661   0.73054   1.000
    O164    O    0.63587   0.11567   0.23054   1.000
    O165    O    0.63565   0.11662   0.73058   1.000
    O166    O    0.63585   0.61564   0.23052   1.000
    O167    O    0.63561   0.61661   0.73054   1.000
    O168    O    0.36476   0.38492   0.26949   1.000
    O169    O    0.36445   0.38596   0.76951   1.000
    O170    O    0.36467   0.88488   0.26947   1.000
    O171    O    0.36449   0.88594   0.76950   1.000
    O172    O    0.86476   0.38491   0.26947   1.000
    O173    O    0.86444   0.38597   0.76952   1.000
    O174    O    0.86465   0.88489   0.26947   1.000
    O175    O    0.86447   0.88594   0.76950   1.000
loop_
    _geom_bond_atom_site_label_1
    _geom_bond_atom_site_label_2
    _geom_bond_distance
    _geom_bond_site_symmetry_2
    _ccdc_geom_bond_type
    C106   H90       1.10001      .   S
    C106   H40       1.09999      .   S
    C106   C102      1.53176      .   S
    C106   C125      1.53598  1_554   S
    C104   H88       1.10002      .   S
    C104   H42       1.09962  1_545   S
    C104   C100      1.53179      .   S
    C104   C127      1.53618  1_544   S
    C110   H94       1.10002      .   S
    C110   H44       1.10003      .   S
    C110   C98       1.53188  1_655   S
    C110   C121      1.53612  1_654   S
    C108   H92       1.10003      .   S
    C108   H46       1.09960  1_545   S
    C108   C96       1.53189  1_655   S
    C108   C123      1.53626  1_644   S
    H86    C102      1.10044      .   S
    H82    C98       1.10042      .   S
    H84    C100      1.10049      .   S
    H80    C96       1.10046      .   S
    H36    C102      1.10032      .   S
    H38    C100      1.10013  1_565   S
    H34    C96       1.10009  1_565   S
    H31    C98       1.10053      .   S
    C102   P17       1.80909      .   S
    C100   P15       1.80914      .   S
    C98    P21       1.80921  1_455   S
    C96    P19       1.80919  1_455   S
    P17    O154      1.53746      .   S
    P17    O128      1.53723      .   S
    P17    O166      1.59310      .   S
    P21    O158      1.53744      .   S
    P21    O132      1.53726      .   S
    P21    O162      1.59337  1_655   S
    P15    O152      1.53744      .   S
    P15    O130      1.53686  1_545   S
    P15    O164      1.59323      .   S
    P19    O156      1.53747      .   S
    P19    O134      1.53689  1_545   S
    P19    O160      1.59351  1_655   S
    O154   Cu9       1.93710      .   S
    O158   Cu13      1.93714      .   S
    O156   Cu11      1.93671      .   S
    O152   Cu7       1.93651      .   S
    O128   Cu1       1.93627      .   S
    O130   Cu32      1.93677  1_565   S
    O132   Cu5       1.93615      .   S
    O134   Cu3       1.93671  1_565   S
    O166   Cu13      2.01942      .   S
    O162   Cu9       2.01943      .   S
    O164   Cu11      2.02000      .   S
    O160   Cu7       2.02012      .   S
    Cu9    O170      2.01934      .   S
    Cu9    O138      1.93759      .   S
    Cu13   O174      2.01936      .   S
    Cu13   O142      1.93754      .   S
    Cu3    O148      1.93634      .   S
    Cu7    O168      2.01909      .   S
    Cu7    O136      1.93763      .   S
    Cu11   O172      2.01911      .   S
    Cu11   O140      1.93723      .   S
    Cu32   O144      1.93719      .   S
    Cu1    O146      1.93712      .   S
    Cu5    O150      1.93705      .   S
    O172   P23       1.59329  1_655   S
    O174   P25       1.59342  1_655   S
    O170   P29       1.59323      .   S
    O168   P27       1.59302      .   S
    O148   P29       1.53745  1_545   S
    O144   P25       1.53697  1_545   S
    O146   P23       1.53733      .   S
    O150   P27       1.53736      .   S
    O138   P25       1.53736      .   S
    O142   P29       1.53731      .   S
    O140   P27       1.53723      .   S
    O136   P23       1.53731      .   S
    P27    C112      1.80914      .   S
    P25    C118      1.80942  1_455   S
    P23    C116      1.80914  1_455   S
    P29    C114      1.80922      .   S
    C116   H70       1.10079      .   S
    C116   H52       1.10049      .   S
    C116   C120      1.53173  1_655   S
    C112   H66       1.10053      .   S
    C112   H48       1.10047      .   S
    C112   C124      1.53160      .   S
    C118   H68       1.10011  1_565   S
    C118   H54       1.10047      .   S
    C118   C122      1.53182  1_655   S
    C114   H64       1.10009  1_565   S
    C114   H50       1.10051      .   S
    C114   C126      1.53134      .   S
    H76    C126      1.09935  1_545   S
    H74    C120      1.09998      .   S
    H72    C122      1.09955  1_545   S
    H78    C124      1.09998      .   S
    H56    C120      1.10003      .   S
    H60    C124      1.10003      .   S
    H62    C126      1.10017      .   S
    H58    C122      1.10005      .   S
    C126   C105      1.53693  1_565   S
    C120   C111      1.53640  1_455   S
    C124   C107      1.53624      .   S
    C122   C109      1.53643  1_465   S
    C111   H95       1.10000      .   S
    C111   H45       1.10003      .   S
    C111   C99       1.53188  1_655   S
    C107   H91       1.10001      .   S
    C107   H41       1.10005      .   S
    C107   C103      1.53180      .   S
    C109   H93       1.09998      .   S
    C109   H47       1.09964  1_545   S
    C109   C97       1.53198  1_655   S
    C105   H89       1.09999      .   S
    C105   H43       1.09961  1_545   S
    C105   C101      1.53188      .   S
    H81    C97       1.10170      .   S
    H83    C99       1.10042      .   S
    H87    C103      1.10045      .   S
    H85    C101      1.10047      .   S
    H35    C97       1.09986  1_565   S
    H33    C99       1.10055      .   S
    H37    C103      1.10051      .   S
    H39    C101      1.10013  1_565   S
    C99    P22       1.80923  1_455   S
    C103   P18       1.80901      .   S
    C101   P16       1.80905      .   S
    C97    P20       1.80924  1_455   S
    P22    O159      1.53726      .   S
    P22    O133      1.53697      .   S
    P22    O163      1.59328  1_655   S
    P18    O155      1.53727      .   S
    P18    O129      1.53697      .   S
    P18    O167      1.59300      .   S
    P16    O153      1.53729      .   S
    P16    O131      1.53656  1_545   S
    P16    O165      1.59307      .   S
    P20    O157      1.53751      .   S
    P20    O135      1.53650  1_545   S
    P20    O161      1.59339  1_655   S
    O157   Cu12      1.93788      .   S
    O159   Cu14      1.93694      .   S
    O155   Cu10      1.93703      .   S
    O153   Cu8       1.93707      .   S
    O133   Cu6       1.93654      .   S
    O129   Cu2       1.93646      .   S
    O131   Cu0       1.93677  1_565   S
    O135   Cu4       1.93665  1_565   S
    O167   Cu6       2.01921      .   S
    O163   Cu2       2.01920      .   S
    O161   Cu0       2.01933      .   S
    O165   Cu4       2.01950      .   S
    Cu14   O143      1.93728      .   S
    Cu10   O139      1.93722      .   S
    Cu8    O137      1.93751      .   S
    Cu12   O141      1.93743      .   S
    Cu6    O173      2.01975      .   S
    Cu6    O151      1.93716      .   S
    Cu2    O169      2.01981      .   S
    Cu2    O147      1.93711      .   S
    Cu0    O171      2.01922  1_545   S
    Cu0    O145      1.93675      .   S
    Cu4    O175      2.01933  1_545   S
    Cu4    O149      1.93673      .   S
    O175   P26       1.58960  1_655   S
    O171   P30       1.59318      .   S
    O169   P28       1.59317      .   S
    O173   P24       1.59326  1_655   S
    O143   P30       1.53712      .   S
    O139   P26       1.53823      .   S
    O141   P28       1.53714      .   S
    O137   P24       1.53718      .   S
    O149   P30       1.53719  1_545   S
    O145   P26       1.53485  1_545   S
    O151   P28       1.53742      .   S
    O147   P24       1.53737      .   S
    P26    C119      1.81450  1_455   S
    P30    C115      1.80908      .   S
    P24    C117      1.80923  1_455   S
    P28    C113      1.80899      .   S
    H69    C119      1.10298  1_545   S
    C119   H55       1.10051      .   S
    C119   C123      1.53187  1_655   S
    C115   H51       1.10052      .   S
    C115   H65       1.10010  1_565   S
    C115   C127      1.53161      .   S
    C113   H49       1.10051      .   S
    C113   H67       1.10050      .   S
    C113   C125      1.53174      .   S
    C117   H53       1.10049      .   S
    C117   H71       1.10049      .   S
    C117   C121      1.53183  1_655   S
    H77    C127      1.09956  1_545   S
    H73    C123      1.09958  1_545   S
    H79    C125      1.09997      .   S
    H75    C121      1.09995      .   S
    H61    C125      1.10002      .   S
    H57    C121      1.10002      .   S
    H59    C123      1.10006      .   S
    H63    C127      1.10006      .   S
    O160   Cu32      2.02025      .   S
    O161   Cu8       2.01989      .   S
    O162   Cu1       2.02009      .   S
    O163   Cu10      2.01979      .   S
    O164   Cu3       2.02020      .   S
    O165   Cu12      2.01994      .   S
    O166   Cu5       2.02011      .   S
    O167   Cu14      2.01986      .   S
    O168   Cu1       2.01984      .   S
    O169   Cu8       2.01995      .   S
    O170   Cu32      2.01969  1_565   S
    O171   Cu10      2.02025      .   S
    O172   Cu5       2.01992      .   S
    O173   Cu12      2.02006      .   S
    O174   Cu3       2.01983  1_565   S
    O175   Cu14      2.02008      .   S
