# CIF file generated by openbabel 2.4.90, see http://openbabel.sf.net
data_I
_chemical_name_common ''
_cell_length_a 12.465
_cell_length_b 15.968
_cell_length_c 15.972
_cell_angle_alpha 90.002
_cell_angle_beta 89.977
_cell_angle_gamma 90.007
_space_group_name_H-M_alt 'P 1'
_space_group_name_Hall 'P 1'
loop_
    _symmetry_equiv_pos_as_xyz
    x,y,z
loop_
    _atom_site_label
    _atom_site_type_symbol
    _atom_site_fract_x
    _atom_site_fract_y
    _atom_site_fract_z
    _atom_site_occupancy
    H0      H    0.24520   0.59559   0.82333   1.000
    H1      H    0.24041   0.62419   0.92950   1.000
    H2      H    0.76133   0.70967   0.71735   1.000
    H3      H    0.75348   0.64203   0.94502   1.000
    H4      H    0.76095   0.60093   0.84468   1.000
    H5      H    0.13087   0.72043   0.83876   1.000
    H6      H    0.23336   0.77515   0.89238   1.000
    H7      H    0.86663   0.73010   0.84721   1.000
    H8      H    0.75997   0.78814   0.89204   1.000
    H9      H    0.74524   0.40440   0.17672   1.000
    H10     H    0.74054   0.37579   0.07055   1.000
    H11     H    0.26131   0.29038   0.28257   1.000
    H12     H    0.25357   0.35803   0.05490   1.000
    H13     H    0.26098   0.39912   0.15524   1.000
    H14     H    0.63093   0.27954   0.16134   1.000
    H15     H    0.73343   0.22484   0.10767   1.000
    H16     H    0.36666   0.26997   0.15266   1.000
    H17     H    0.26000   0.21190   0.10780   1.000
    H18     H    0.49525   0.67675   0.09560   1.000
    H19     H    0.49050   0.57055   0.12418   1.000
    H20     H    0.01134   0.78261   0.20964   1.000
    H21     H    0.00350   0.55488   0.14200   1.000
    H22     H    0.01100   0.65524   0.10092   1.000
    H23     H    0.38090   0.66132   0.22043   1.000
    H24     H    0.48336   0.60765   0.27510   1.000
    H25     H    0.11661   0.65268   0.23003   1.000
    H26     H    0.00991   0.60788   0.28808   1.000
    H27     H    0.99516   0.32337   0.90436   1.000
    H28     H    0.99048   0.42956   0.87576   1.000
    H29     H    0.51127   0.21737   0.79033   1.000
    H30     H    0.50350   0.44509   0.85790   1.000
    H31     H    0.51093   0.34472   0.89905   1.000
    H32     H    0.88091   0.33877   0.77955   1.000
    H33     H    0.98344   0.39242   0.72485   1.000
    H34     H    0.61663   0.34728   0.76990   1.000
    H35     H    0.51000   0.39211   0.71189   1.000
    H36     H    0.00481   0.90442   0.32329   1.000
    H37     H    0.00950   0.87581   0.42946   1.000
    H38     H    0.48875   0.79041   0.21739   1.000
    H39     H    0.49647   0.85805   0.44506   1.000
    H40     H    0.48907   0.89914   0.34472   1.000
    H41     H    0.11910   0.77956   0.33868   1.000
    H42     H    0.01658   0.72486   0.39233   1.000
    H43     H    0.38337   0.76998   0.34729   1.000
    H44     H    0.49001   0.71193   0.39208   1.000
    H45     H    0.50479   0.09557   0.67669   1.000
    H46     H    0.50960   0.12415   0.57052   1.000
    H47     H    0.98869   0.20968   0.78259   1.000
    H48     H    0.99657   0.14201   0.55492   1.000
    H49     H    0.98908   0.10092   0.65526   1.000
    H50     H    0.61915   0.22040   0.66126   1.000
    H51     H    0.51669   0.27511   0.60762   1.000
    H52     H    0.88343   0.23007   0.65273   1.000
    H53     H    0.99011   0.28813   0.60791   1.000
    H54     H    0.75487   0.82333   0.59557   1.000
    H55     H    0.75961   0.92953   0.62415   1.000
    H56     H    0.23873   0.71738   0.70969   1.000
    H57     H    0.24657   0.94511   0.64205   1.000
    H58     H    0.23909   0.84474   0.60090   1.000
    H59     H    0.86916   0.83877   0.72036   1.000
    H60     H    0.76665   0.89243   0.77507   1.000
    H61     H    0.13340   0.84729   0.73011   1.000
    H62     H    0.24005   0.89212   0.78810   1.000
    H63     H    0.25479   0.17669   0.40435   1.000
    H64     H    0.25951   0.07050   0.37574   1.000
    H65     H    0.73871   0.28261   0.29038   1.000
    H66     H    0.74650   0.05489   0.35803   1.000
    H67     H    0.73903   0.15526   0.39910   1.000
    H68     H    0.36913   0.16130   0.27950   1.000
    H69     H    0.26663   0.10764   0.22483   1.000
    H70     H    0.63341   0.15267   0.26999   1.000
    H71     H    0.74008   0.10786   0.21194   1.000
    C72     C    0.61567   0.76163   0.76198   1.000
    C73     C    0.26935   0.64500   0.86793   1.000
    C74     C    0.73677   0.75994   0.76130   1.000
    C75     C    0.72949   0.65494   0.88013   1.000
    C76     C    0.21828   0.72842   0.84289   1.000
    C77     C    0.77886   0.73663   0.84840   1.000
    C78     C    0.11566   0.23843   0.23800   1.000
    C79     C    0.76942   0.35498   0.13212   1.000
    C80     C    0.23676   0.24011   0.23862   1.000
    C81     C    0.22953   0.34511   0.11900   1.000
    C82     C    0.71834   0.27156   0.15718   1.000
    C83     C    0.27888   0.26343   0.15150   1.000
    C84     C    0.86568   0.73802   0.26157   1.000
    C85     C    0.51940   0.63214   0.14499   1.000
    C86     C    0.98678   0.73865   0.25989   1.000
    C87     C    0.97953   0.61979   0.15492   1.000
    C88     C    0.46830   0.65717   0.22840   1.000
    C89     C    0.02884   0.65151   0.23650   1.000
    C90     C    0.36565   0.26200   0.73837   1.000
    C91     C    0.01933   0.36796   0.85496   1.000
    C92     C    0.48675   0.26133   0.74008   1.000
    C93     C    0.47949   0.38018   0.84506   1.000
    C94     C    0.96832   0.34291   0.77156   1.000
    C95     C    0.52886   0.34846   0.76338   1.000
    C96     C    0.63437   0.73841   0.26201   1.000
    C97     C    0.98066   0.85500   0.36789   1.000
    C98     C    0.51327   0.74014   0.26133   1.000
    C99     C    0.52050   0.84513   0.38017   1.000
    C100    C    0.03169   0.77158   0.34284   1.000
    C101    C    0.47114   0.76344   0.34845   1.000
    C102    C    0.13435   0.26161   0.73799   1.000
    C103    C    0.48066   0.14497   0.63208   1.000
    C104    C    0.01325   0.25994   0.73864   1.000
    C105    C    0.02053   0.15493   0.61981   1.000
    C106    C    0.53175   0.22839   0.65712   1.000
    C107    C    0.97120   0.23661   0.65153   1.000
    C108    C    0.38437   0.76201   0.76162   1.000
    C109    C    0.73070   0.86795   0.64497   1.000
    C110    C    0.26327   0.76135   0.75990   1.000
    C111    C    0.27055   0.88019   0.65495   1.000
    C112    C    0.78175   0.84291   0.72836   1.000
    C113    C    0.22117   0.84848   0.73660   1.000
    C114    C    0.88439   0.23798   0.23840   1.000
    C115    C    0.23063   0.13209   0.35494   1.000
    C116    C    0.76328   0.23864   0.24013   1.000
    C117    C    0.77051   0.11980   0.34511   1.000
    C118    C    0.28172   0.15715   0.27150   1.000
    C119    C    0.72118   0.15150   0.26340   1.000
loop_
    _geom_bond_atom_site_label_1
    _geom_bond_atom_site_label_2
    _geom_bond_distance
    _geom_bond_site_symmetry_2
    _ccdc_geom_bond_type
    H12    C81       1.08642      .   S
    H10    C79       1.09878      .   S
    H18    C85       1.10482      .   S
    H22    C87       1.10356  1_455   S
    H15    C82       1.10318      .   S
    H17    C83       1.10436      .   S
    C81    C83       1.53279      .   S
    C81    H13       1.11023      .   S
    H19    C85       1.09878      .   S
    C79    C82       1.52963      .   S
    C79    H9        1.10487      .   S
    H21    C87       1.09828  1_455   S
    C85    C88       1.52959      .   S
    C83    H16       1.09919      .   S
    C83    C80       1.53296      .   S
    C87    C89       1.52730  1_655   S
    C82    H14       1.09898      .   S
    C82    C116      1.53172      .   S
    H20    C86       1.10922  1_455   S
    H71    C119      1.10298      .   S
    H38    C98       1.10936      .   S
    H23    C88       1.09897      .   S
    H69    C118      1.10278      .   S
    C88    C98       1.53165      .   S
    C88    H24       1.10322      .   S
    H25    C89       1.09908      .   S
    C89    C86       1.53308  1_455   S
    C89    H26       1.10433      .   S
    C78    C80       1.50983      .   S
    C114   C116      1.50983      .   S
    C80    C118      1.53145      .   S
    C80    H11       1.10940      .   S
    C116   C119      1.53274      .   S
    C116   H65       1.10933      .   S
    C86    C84       1.50982      .   S
    C86    C100      1.53158  1_655   S
    C98    C96       1.50984      .   S
    C98    C101      1.53293      .   S
    C119   H70       1.09926      .   S
    C119   C117      1.52917      .   S
    C118   H68       1.09904      .   S
    C118   C115      1.53006      .   S
    H36    C97       1.10477  1_455   S
    H41    C100      1.09898      .   S
    C100   C97       1.52943  1_455   S
    C100   H42       1.10309      .   S
    H40    C99       1.10370      .   S
    C117   H66       1.09834      .   S
    C117   H67       1.10367      .   S
    H43    C101      1.09919      .   S
    C101   C99       1.52856      .   S
    C101   H44       1.10356      .   S
    C115   H64       1.09882      .   S
    C115   H63       1.10489      .   S
    C97    H37       1.09863  1_655   S
    C99    H39       1.09830      .   S
    H48    C105      1.09824  1_655   S
    H46    C103      1.09870      .   S
    H54    C109      1.10488      .   S
    H58    C111      1.10436      .   S
    H51    C106      1.10312      .   S
    H53    C107      1.10345      .   S
    C105   C107      1.52838  1_455   S
    C105   H49       1.10355  1_455   S
    H55    C109      1.09877      .   S
    C103   C106      1.52963      .   S
    C103   H45       1.10486      .   S
    H57    C111      1.09839      .   S
    C109   C112      1.52957      .   S
    C107   H52       1.09918      .   S
    C107   C104      1.53287  1_655   S
    C111   C113      1.52820      .   S
    C106   H50       1.09899      .   S
    C106   C92       1.53173      .   S
    H56    C110      1.10894      .   S
    H35    C95       1.10344      .   S
    H2     C74       1.10933      .   S
    H59    C112      1.09899      .   S
    H33    C94       1.10314      .   S
    C112   C74       1.53167      .   S
    C112   H60       1.10323      .   S
    H61    C113      1.09914      .   S
    C113   C110      1.53290      .   S
    C113   H62       1.10350      .   S
    C102   C104      1.50983      .   S
    C90    C92       1.50983      .   S
    C104   C94       1.53144  1_455   S
    C104   H47       1.10922  1_455   S
    C92    C95       1.53291      .   S
    C92    H29       1.10932      .   S
    C110   C108      1.50983      .   S
    C110   C76       1.53210      .   S
    C74    C72       1.50982      .   S
    C74    C77       1.53289      .   S
    C95    H34       1.09919      .   S
    C95    C93       1.52862      .   S
    C94    H32       1.09898      .   S
    C94    C91       1.52949  1_655   S
    H0     C73       1.10482      .   S
    H5     C76       1.09898      .   S
    C76    C73       1.52965      .   S
    C76    H6        1.10314      .   S
    H4     C75       1.10368      .   S
    C93    H30       1.09813      .   S
    C93    H31       1.10369      .   S
    H7     C77       1.09918      .   S
    C77    C75       1.52855      .   S
    C77    H8        1.10354      .   S
    C91    H28       1.09864  1_455   S
    C91    H27       1.10465  1_455   S
    C73    H1        1.09878      .   S
    C75    H3        1.09836      .   S
