# CIF file generated by openbabel 2.4.90, see http://openbabel.sf.net
data_I
_chemical_name_common ''
_cell_length_a 12.465
_cell_length_b 15.968
_cell_length_c 15.972
_cell_angle_alpha 90.002
_cell_angle_beta 89.977
_cell_angle_gamma 90.007
_space_group_name_H-M_alt 'P 1'
_space_group_name_Hall 'P 1'
loop_
    _symmetry_equiv_pos_as_xyz
    x,y,z
loop_
    _atom_site_label
    _atom_site_type_symbol
    _atom_site_fract_x
    _atom_site_fract_y
    _atom_site_fract_z
    _atom_site_occupancy
    Cu0     Cu   0.12443   0.47840   0.99748   1.000
    Cu1     Cu   0.87448   0.49748   0.02164   1.000
    Cu2     Cu   0.37440   0.50248   0.97836   1.000
    Cu3     Cu   0.62560   0.97841   0.50248   1.000
    Cu4     Cu   0.12557   0.02166   0.49740   1.000
    Cu5     Cu   0.37562   0.00246   0.52164   1.000
    Cu6     Cu   0.87559   0.99751   0.47830   1.000
    Cu7     Cu   0.62444   0.52168   0.00248   1.000
    C8      C    0.60952   0.65447   0.87386   1.000
    C9      C    0.55713   0.70928   0.81630   1.000
    C10     C    0.44235   0.70852   0.81510   1.000
    C11     C    0.38940   0.65023   0.86881   1.000
    C12     C    0.10955   0.34557   0.12609   1.000
    C13     C    0.05715   0.29073   0.18365   1.000
    C14     C    0.94240   0.29151   0.18488   1.000
    C15     C    0.88947   0.34977   0.13122   1.000
    C16     C    0.85956   0.62613   0.15440   1.000
    C17     C    0.80716   0.68364   0.20929   1.000
    C18     C    0.69238   0.68491   0.20845   1.000
    C19     C    0.63945   0.63121   0.15022   1.000
    C20     C    0.35951   0.37390   0.84552   1.000
    C21     C    0.30712   0.31631   0.79070   1.000
    C22     C    0.19234   0.31519   0.79145   1.000
    C23     C    0.13939   0.36883   0.84976   1.000
    C24     C    0.64048   0.84560   0.37380   1.000
    C25     C    0.69289   0.79077   0.31630   1.000
    C26     C    0.80767   0.79150   0.31514   1.000
    C27     C    0.86060   0.84979   0.36879   1.000
    C28     C    0.14051   0.15446   0.62608   1.000
    C29     C    0.19288   0.20929   0.68364   1.000
    C30     C    0.30766   0.20849   0.68485   1.000
    C31     C    0.36061   0.15020   0.63118   1.000
    C32     C    0.39053   0.87391   0.65440   1.000
    C33     C    0.44291   0.81635   0.70928   1.000
    C34     C    0.55769   0.81517   0.70840   1.000
    C35     C    0.61064   0.86882   0.65019   1.000
    C36     C    0.89049   0.12608   0.34555   1.000
    C37     C    0.94290   0.18370   0.29078   1.000
    C38     C    0.05765   0.18483   0.29146   1.000
    C39     C    0.11057   0.13123   0.34978   1.000
    N40     N    0.55497   0.60182   0.92259   1.000
    N41     N    0.44342   0.59857   0.91884   1.000
    N42     N    0.05503   0.39828   0.07744   1.000
    N43     N    0.94350   0.40139   0.08111   1.000
    N44     N    0.80503   0.57743   0.10173   1.000
    N45     N    0.69348   0.58115   0.09856   1.000
    N46     N    0.30497   0.42261   0.89819   1.000
    N47     N    0.19342   0.41886   0.90141   1.000
    N48     N    0.69501   0.89825   0.42258   1.000
    N49     N    0.80656   0.90146   0.41883   1.000
    N50     N    0.19504   0.10173   0.57743   1.000
    N51     N    0.30660   0.09860   0.58108   1.000
    N52     N    0.44507   0.92256   0.60173   1.000
    N53     N    0.55663   0.91892   0.59800   1.000
    N54     N    0.94502   0.07741   0.39823   1.000
    N55     N    0.05653   0.08117   0.40142   1.000
    Cl56    Cl   0.74937   0.44199   0.92371   1.000
    Cl57    Cl   0.24929   0.55805   0.07632   1.000
    Cl58    Cl   0.99939   0.57636   0.94190   1.000
    Cl59    Cl   0.49929   0.42371   0.05798   1.000
    Cl60    Cl   0.50074   0.05804   0.42368   1.000
    Cl61    Cl   0.00064   0.94201   0.57628   1.000
    Cl62    Cl   0.25070   0.92371   0.44201   1.000
    Cl63    Cl   0.75070   0.07635   0.55802   1.000
    Ts64    Ts   0.64951   0.65463   0.87595   1.000
    Ts65    Ts   0.57664   0.72673   0.79819   1.000
    Ts66    Ts   0.42302   0.72635   0.79727   1.000
    Ts67    Ts   0.34938   0.64848   0.86852   1.000
    Ts68    Ts   0.14954   0.34541   0.12373   1.000
    Ts69    Ts   0.07665   0.27330   0.20177   1.000
    Ts70    Ts   0.92306   0.27367   0.20272   1.000
    Ts71    Ts   0.84945   0.35151   0.13152   1.000
    Ts72    Ts   0.89955   0.62402   0.15457   1.000
    Ts73    Ts   0.82666   0.70177   0.22672   1.000
    Ts74    Ts   0.67304   0.70274   0.22630   1.000
    Ts75    Ts   0.59943   0.63152   0.14848   1.000
    Ts76    Ts   0.39950   0.37599   0.84537   1.000
    Ts77    Ts   0.32663   0.29821   0.77326   1.000
    Ts78    Ts   0.17301   0.29733   0.77363   1.000
    Ts79    Ts   0.09937   0.36854   0.85149   1.000
    Ts80    Ts   0.60049   0.84544   0.37592   1.000
    Ts81    Ts   0.67339   0.77332   0.29820   1.000
    Ts82    Ts   0.82701   0.77368   0.29728   1.000
    Ts83    Ts   0.90062   0.85153   0.36849   1.000
    Ts84    Ts   0.10051   0.15462   0.62399   1.000
    Ts85    Ts   0.17337   0.22673   0.70176   1.000
    Ts86    Ts   0.32699   0.22632   0.70269   1.000
    Ts87    Ts   0.40063   0.14846   0.63148   1.000
    Ts88    Ts   0.35053   0.87600   0.65458   1.000
    Ts89    Ts   0.42340   0.79824   0.72673   1.000
    Ts90    Ts   0.57702   0.79732   0.72626   1.000
    Ts91    Ts   0.65066   0.86853   0.64845   1.000
    Ts92    Ts   0.85050   0.12398   0.34540   1.000
    Ts93    Ts   0.92340   0.20180   0.27332   1.000
    Ts94    Ts   0.07699   0.20269   0.27364   1.000
    Ts95    Ts   0.15059   0.13152   0.35150   1.000
loop_
    _geom_bond_atom_site_label_1
    _geom_bond_atom_site_label_2
    _geom_bond_distance
    _geom_bond_site_symmetry_2
    _ccdc_geom_bond_type
    Cu7    N45       1.99957      .   S
    Cu7    N40       2.00414  1_554   S
    Cu7    Cl56      2.37194  1_554   S
    Cu1    N43       1.99945      .   S
    Cu1    N44       2.00376      .   S
    Cu1    Cl58      2.37289  1_554   S
    Cl59   Cu2       2.37173  1_554   S
    Cl57   Cu0       2.37206  1_554   S
    N42    N43       1.39234  1_455   S
    N42    C12       1.33218      .   S
    N42    Cu0       2.00375  1_554   S
    N43    C15       1.33150      .   S
    N45    N44       1.39275      .   S
    N45    C19       1.33146      .   S
    N44    C16       1.33211      .   S
    C12    C13       1.42762      .   S
    C15    C14       1.42686      .   S
    C19    C18       1.42693      .   S
    C16    C17       1.42770      .   S
    C13    C14       1.43049  1_455   S
    C18    C17       1.43092      .   S
    C37    C38       1.43051  1_655   S
    C37    C36       1.42766      .   S
    C38    C39       1.42692      .   S
    C26    C25       1.43093      .   S
    C26    C27       1.42693      .   S
    C25    C24       1.42699      .   S
    C36    N54       1.33209      .   S
    C39    N55       1.33137      .   S
    C27    N49       1.33145      .   S
    C24    N48       1.33268      .   S
    N54    N55       1.39228  1_655   S
    N54    Cu6       2.00272  1_545   S
    N55    Cu4       1.99874      .   S
    N49    N48       1.39271      .   S
    N49    Cu6       1.99885      .   S
    N48    Cu3       2.00368      .   S
    Cl60   Cu3       2.37180  1_545   S
    Cl62   Cu5       2.37159  1_565   S
    Cu6    Cl63      2.37236  1_565   S
    Cu4    Cl61      2.37237  1_545   S
    Cu4    N50       2.00470      .   S
    Cu3    N53       1.99194      .   S
    Cu5    N51       1.99945      .   S
    Cu5    N52       2.00372  1_545   S
    N50    N51       1.39277      .   S
    N50    C28       1.33210      .   S
    N51    C31       1.33146      .   S
    N53    N52       1.39314      .   S
    N53    C35       1.33741      .   S
    N52    C32       1.33145      .   S
    C28    C29       1.42771      .   S
    C31    C30       1.42694      .   S
    C35    C34       1.42603      .   S
    C32    C33       1.42829      .   S
    C29    C30       1.43092      .   S
    C34    C33       1.43094      .   S
    C21    C22       1.43093      .   S
    C21    C20       1.42798      .   S
    C22    C23       1.42696      .   S
    C10    C9        1.43092      .   S
    C10    C11       1.42740      .   S
    C9     C8        1.42775      .   S
    C20    N46       1.33209      .   S
    C23    N47       1.33144      .   S
    C11    N41       1.33152      .   S
    C8     N40       1.33205      .   S
    N46    N47       1.39269      .   S
    N46    Cu2       2.00386      .   S
    N47    Cu0       1.99921      .   S
    N41    N40       1.39274      .   S
    N41    Cu2       1.99937      .   S
    C8     Ts64      0.49963      .   S
    C9     Ts65      0.46944      .   S
    C10    Ts66      0.46932      .   S
    C11    Ts67      0.49962      .   S
    C12    Ts68      0.49994      .   S
    C13    Ts69      0.46947      .   S
    C14    Ts70      0.46948      .   S
    C15    Ts71      0.49961      .   S
    C16    Ts72      0.49964      .   S
    C17    Ts73      0.46946      .   S
    C18    Ts74      0.46949      .   S
    C19    Ts75      0.49961      .   S
    C20    Ts76      0.49963      .   S
    C21    Ts77      0.46935      .   S
    C22    Ts78      0.46947      .   S
    C23    Ts79      0.49961      .   S
    C24    Ts80      0.49966      .   S
    C25    Ts81      0.46945      .   S
    C26    Ts82      0.46949      .   S
    C27    Ts83      0.49961      .   S
    C28    Ts84      0.49963      .   S
    C29    Ts85      0.46946      .   S
    C30    Ts86      0.46948      .   S
    C31    Ts87      0.49962      .   S
    C32    Ts88      0.49964      .   S
    C33    Ts89      0.46946      .   S
    C34    Ts90      0.46976      .   S
    C35    Ts91      0.49962      .   S
    C36    Ts92      0.49964      .   S
    C37    Ts93      0.46948      .   S
    C38    Ts94      0.46950      .   S
    C39    Ts95      0.49961      .   S
