# CIF file generated by openbabel 2.4.90, see http://openbabel.sf.net
data_I
_chemical_name_common ''
_cell_length_a 12.465
_cell_length_b 15.968
_cell_length_c 15.972
_cell_angle_alpha 90.002
_cell_angle_beta 89.977
_cell_angle_gamma 90.007
_space_group_name_H-M_alt 'P 1'
_space_group_name_Hall 'P 1'
loop_
    _symmetry_equiv_pos_as_xyz
    x,y,z
loop_
    _atom_site_label
    _atom_site_type_symbol
    _atom_site_fract_x
    _atom_site_fract_y
    _atom_site_fract_z
    _atom_site_occupancy
    C0      C    0.60952   0.65447   0.87386   1.000
    C1      C    0.55713   0.70928   0.81630   1.000
    C2      C    0.44235   0.70852   0.81510   1.000
    C3      C    0.38940   0.65023   0.86881   1.000
    C4      C    0.10955   0.34557   0.12609   1.000
    C5      C    0.05715   0.29073   0.18365   1.000
    C6      C    0.94240   0.29151   0.18488   1.000
    C7      C    0.88947   0.34977   0.13122   1.000
    C8      C    0.85956   0.62613   0.15440   1.000
    C9      C    0.80716   0.68364   0.20929   1.000
    C10     C    0.69238   0.68491   0.20845   1.000
    C11     C    0.63945   0.63121   0.15022   1.000
    C12     C    0.35951   0.37390   0.84552   1.000
    C13     C    0.30712   0.31631   0.79070   1.000
    C14     C    0.19234   0.31519   0.79145   1.000
    C15     C    0.13939   0.36883   0.84976   1.000
    C16     C    0.64048   0.84560   0.37380   1.000
    C17     C    0.69289   0.79077   0.31630   1.000
    C18     C    0.80767   0.79150   0.31514   1.000
    C19     C    0.86060   0.84979   0.36879   1.000
    C20     C    0.14051   0.15446   0.62608   1.000
    C21     C    0.19288   0.20929   0.68364   1.000
    C22     C    0.30766   0.20849   0.68485   1.000
    C23     C    0.36061   0.15020   0.63118   1.000
    C24     C    0.39053   0.87391   0.65440   1.000
    C25     C    0.44291   0.81635   0.70928   1.000
    C26     C    0.55769   0.81517   0.70840   1.000
    C27     C    0.61064   0.86882   0.65019   1.000
    C28     C    0.89049   0.12608   0.34555   1.000
    C29     C    0.94290   0.18370   0.29078   1.000
    C30     C    0.05765   0.18483   0.29146   1.000
    C31     C    0.11057   0.13123   0.34978   1.000
    N32     N    0.55497   0.60182   0.92259   1.000
    N33     N    0.44342   0.59857   0.91884   1.000
    N34     N    0.05503   0.39828   0.07744   1.000
    N35     N    0.94350   0.40139   0.08111   1.000
    N36     N    0.80503   0.57743   0.10173   1.000
    N37     N    0.69348   0.58115   0.09856   1.000
    N38     N    0.30497   0.42261   0.89819   1.000
    N39     N    0.19342   0.41886   0.90141   1.000
    N40     N    0.69501   0.89825   0.42258   1.000
    N41     N    0.80656   0.90146   0.41883   1.000
    N42     N    0.19504   0.10173   0.57743   1.000
    N43     N    0.30660   0.09860   0.58108   1.000
    N44     N    0.44507   0.92256   0.60173   1.000
    N45     N    0.55663   0.91892   0.59800   1.000
    N46     N    0.94502   0.07741   0.39823   1.000
    N47     N    0.05653   0.08117   0.40142   1.000
    Cl48    Cl   0.74937   0.44199   0.92371   1.000
    Cl49    Cl   0.24929   0.55805   0.07632   1.000
    Cl50    Cl   0.99939   0.57636   0.94190   1.000
    Cl51    Cl   0.49929   0.42371   0.05798   1.000
    Cl52    Cl   0.50074   0.05804   0.42368   1.000
    Cl53    Cl   0.00064   0.94201   0.57628   1.000
    Cl54    Cl   0.25070   0.92371   0.44201   1.000
    Cl55    Cl   0.75070   0.07635   0.55802   1.000
loop_
    _geom_bond_atom_site_label_1
    _geom_bond_atom_site_label_2
    _geom_bond_distance
    _geom_bond_site_symmetry_2
    _ccdc_geom_bond_type
    N34    N35       1.39234  1_455   S
    N34    C4        1.33218      .   S
    N35    C7        1.33150      .   S
    N37    N36       1.39275      .   S
    N37    C11       1.33146      .   S
    N36    C8        1.33211      .   S
    C4     C5        1.42762      .   S
    C7     C6        1.42686      .   S
    C11    C10       1.42693      .   S
    C8     C9        1.42770      .   S
    C5     C6        1.43049  1_455   S
    C10    C9        1.43092      .   S
    C29    C30       1.43051  1_655   S
    C29    C28       1.42766      .   S
    C30    C31       1.42692      .   S
    C18    C17       1.43093      .   S
    C18    C19       1.42693      .   S
    C17    C16       1.42699      .   S
    C28    N46       1.33209      .   S
    C31    N47       1.33137      .   S
    C19    N41       1.33145      .   S
    C16    N40       1.33268      .   S
    N46    N47       1.39228  1_655   S
    N41    N40       1.39271      .   S
    N42    N43       1.39277      .   S
    N42    C20       1.33210      .   S
    N43    C23       1.33146      .   S
    N45    N44       1.39314      .   S
    N45    C27       1.33741      .   S
    N44    C24       1.33145      .   S
    C20    C21       1.42771      .   S
    C23    C22       1.42694      .   S
    C27    C26       1.42603      .   S
    C24    C25       1.42829      .   S
    C21    C22       1.43092      .   S
    C26    C25       1.43094      .   S
    C13    C14       1.43093      .   S
    C13    C12       1.42798      .   S
    C14    C15       1.42696      .   S
    C2     C1        1.43092      .   S
    C2     C3        1.42740      .   S
    C1     C0        1.42775      .   S
    C12    N38       1.33209      .   S
    C15    N39       1.33144      .   S
    C3     N33       1.33152      .   S
    C0     N32       1.33205      .   S
    N38    N39       1.39269      .   S
    N33    N32       1.39274      .   S
