# CIF file generated by openbabel 2.4.90, see http://openbabel.sf.net
data_I
_chemical_name_common ''
_cell_length_a 12.465
_cell_length_b 15.968
_cell_length_c 15.972
_cell_angle_alpha 90.002
_cell_angle_beta 89.977
_cell_angle_gamma 90.007
_space_group_name_H-M_alt 'P 1'
_space_group_name_Hall 'P 1'
loop_
    _symmetry_equiv_pos_as_xyz
    x,y,z
loop_
    _atom_site_label
    _atom_site_type_symbol
    _atom_site_fract_x
    _atom_site_fract_y
    _atom_site_fract_z
    _atom_site_occupancy
    Zr0     Zr   0.62444   0.52168   0.00248   1.000
    Zr1     Zr   0.12443   0.47840   0.99748   1.000
    Zr2     Zr   0.87448   0.49748   0.02164   1.000
    Zr3     Zr   0.37440   0.50248   0.97836   1.000
    Zr4     Zr   0.62560   0.97841   0.50248   1.000
    Zr5     Zr   0.12557   0.02166   0.49740   1.000
    Zr6     Zr   0.37562   0.00246   0.52164   1.000
    Zr7     Zr   0.87559   0.99751   0.47830   1.000
    Zr8     Zr   0.74937   0.44199   0.92371   1.000
    Zr9     Zr   0.24929   0.55805   0.07632   1.000
    Zr10    Zr   0.99939   0.57636   0.94190   1.000
    Zr11    Zr   0.49929   0.42371   0.05798   1.000
    Zr12    Zr   0.50074   0.05804   0.42368   1.000
    Zr13    Zr   0.00064   0.94201   0.57628   1.000
    Zr14    Zr   0.25070   0.92371   0.44201   1.000
    Zr15    Zr   0.75070   0.07635   0.55802   1.000
    O16     O    0.68690   0.48184   0.96309   1.000
    O17     O    0.93694   0.53692   0.98177   1.000
    O18     O    0.43684   0.46309   0.01817   1.000
    O19     O    0.18686   0.51822   0.03690   1.000
    O20     O    0.56317   0.01822   0.46308   1.000
    O21     O    0.31316   0.96308   0.48182   1.000
    O22     O    0.81314   0.03693   0.51816   1.000
    O23     O    0.06311   0.98184   0.53684   1.000
    N24     N    0.23831   0.77250   0.77191   1.000
    N25     N    0.51172   0.27248   0.72808   1.000
    N26     N    0.26172   0.22812   0.22741   1.000
    N27     N    0.76173   0.77193   0.77244   1.000
    N28     N    0.98832   0.27193   0.72749   1.000
    N29     N    0.48831   0.72815   0.27248   1.000
    N30     N    0.01170   0.72750   0.27187   1.000
    N31     N    0.73833   0.22749   0.22814   1.000
    C32     C    0.24946   0.36928   0.84617   1.000
    O33     O    0.20419   0.40896   0.89781   1.000
    O34     O    0.29457   0.41591   0.89222   1.000
    C35     C    0.74951   0.63075   0.15377   1.000
    O36     O    0.70423   0.59108   0.10215   1.000
    O37     O    0.79463   0.58410   0.10773   1.000
    C38     C    0.49947   0.65381   0.86925   1.000
    O39     O    0.54458   0.60778   0.91589   1.000
    O40     O    0.45419   0.60217   0.90892   1.000
    C41     C    0.99952   0.34621   0.13073   1.000
    O42     O    0.95425   0.39782   0.09105   1.000
    O43     O    0.04462   0.39227   0.08410   1.000
    C44     C    0.50058   0.86929   0.65367   1.000
    O45     O    0.45546   0.91590   0.60768   1.000
    O46     O    0.54585   0.90898   0.60195   1.000
    C47     C    0.00053   0.13073   0.34620   1.000
    O48     O    0.04579   0.09107   0.39781   1.000
    O49     O    0.95541   0.08410   0.39223   1.000
    C50     C    0.75054   0.84623   0.36924   1.000
    O51     O    0.79581   0.89786   0.40890   1.000
    O52     O    0.70542   0.89228   0.41588   1.000
    C53     C    0.25055   0.15380   0.63071   1.000
    O54     O    0.29583   0.10216   0.59103   1.000
    O55     O    0.20543   0.10775   0.58406   1.000
    O56     O    0.34714   0.33604   0.80633   1.000
    O57     O    0.15215   0.33472   0.80709   1.000
    O58     O    0.40215   0.69289   0.83469   1.000
    O59     O    0.40289   0.83605   0.69358   1.000
    O60     O    0.59715   0.69366   0.83600   1.000
    O61     O    0.65218   0.66533   0.19286   1.000
    O62     O    0.84717   0.66397   0.19362   1.000
    O63     O    0.09785   0.16531   0.30709   1.000
    O64     O    0.90287   0.16396   0.30638   1.000
    O65     O    0.65286   0.80639   0.33601   1.000
    O66     O    0.84786   0.80713   0.33467   1.000
    O67     O    0.59789   0.83472   0.69279   1.000
    O68     O    0.34787   0.19287   0.66528   1.000
    O69     O    0.09718   0.30637   0.16389   1.000
    O70     O    0.15287   0.19365   0.66395   1.000
    O71     O    0.90220   0.30712   0.16531   1.000
loop_
    _geom_bond_atom_site_label_1
    _geom_bond_atom_site_label_2
    _geom_bond_distance
    _geom_bond_site_symmetry_2
    _ccdc_geom_bond_type
    Zr0    O16       1.18597  1_554   S
    Zr8    O16       1.18597      .   S
    Zr2    O17       1.18645  1_554   S
    Zr10   O17       1.18645      .   S
    Zr11   O18       1.18587      .   S
    Zr3    O18       1.18587  1_556   S
    Zr9    O19       1.18603      .   S
    Zr1    O19       1.18603  1_556   S
    Zr12   O20       1.18590      .   S
    Zr4    O20       1.18590  1_565   S
    Zr14   O21       1.18579      .   S
    Zr6    O21       1.18579  1_545   S
    Zr7    O22       1.18618  1_565   S
    Zr15   O22       1.18618      .   S
    Zr5    O23       1.18619  1_545   S
    Zr13   O23       1.18619      .   S
    C32    O33       1.18305      .   S
    Zr1    O33       2.17974      .   S
    C32    O34       1.18821      .   S
    Zr3    O34       2.18954      .   S
    C35    O36       1.18316      .   S
    Zr0    O36       2.18002      .   S
    C35    O37       1.18816      .   S
    Zr2    O37       2.18944      .   S
    C38    O39       1.18831      .   S
    Zr0    O39       2.18978  1_554   S
    C38    O40       1.18314      .   S
    Zr3    O40       2.17991      .   S
    C41    O42       1.18306      .   S
    Zr2    O42       2.17984      .   S
    C41    O43       1.18811  1_655   S
    Zr1    O43       2.18939  1_556   S
    C44    O45       1.18755      .   S
    Zr6    O45       2.18881  1_545   S
    C44    O46       1.18400      .   S
    Zr4    O46       2.17723      .   S
    C47    O48       1.18288      .   S
    Zr5    O48       2.17935      .   S
    C47    O49       1.18783  1_455   S
    Zr7    O49       2.18859  1_565   S
    C50    O51       1.18301      .   S
    Zr7    O51       2.17951      .   S
    C50    O52       1.18815      .   S
    Zr4    O52       2.18939      .   S
    C53    O54       1.18307      .   S
    Zr6    O54       2.17984      .   S
    C53    O55       1.18842      .   S
    Zr5    O55       2.19018      .   S
    C32    O56       1.47272      .   S
    N25    O56       2.60743      .   S
    C32    O57       1.47167      .   S
    N28    O57       2.60641  1_655   S
    N24    O58       2.60663      .   S
    C38    O58       1.47177      .   S
    N24    O59       2.60792      .   S
    C44    O59       1.47312      .   S
    C38    O60       1.47271      .   S
    N27    O60       2.60745      .   S
    C35    O61       1.47172      .   S
    N29    O61       2.60655      .   S
    C35    O62       1.47273      .   S
    N30    O62       2.60740  1_455   S
    C47    O63       1.47173      .   S
    N26    O63       2.60681      .   S
    C47    O64       1.47272  1_455   S
    N31    O64       2.60756      .   S
    C50    O65       1.47275      .   S
    N29    O65       2.60745      .   S
    C50    O66       1.47163      .   S
    N30    O66       2.60637  1_455   S
    C44    O67       1.47215      .   S
    N27    O67       2.60716      .   S
    N25    O68       2.60656      .   S
    C53    O68       1.47172      .   S
    N26    O69       2.60756      .   S
    C41    O69       1.47234  1_655   S
    N28    O70       2.60738  1_655   S
    C53    O70       1.47271      .   S
    C41    O71       1.47160      .   S
    N31    O71       2.60640      .   S
