# CIF file generated by openbabel 2.4.90, see http://openbabel.sf.net
data_I
_chemical_name_common ''
_cell_length_a 12.465
_cell_length_b 15.968
_cell_length_c 15.972
_cell_angle_alpha 90.002
_cell_angle_beta 89.977
_cell_angle_gamma 90.007
_space_group_name_H-M_alt 'P 1'
_space_group_name_Hall 'P 1'
loop_
    _symmetry_equiv_pos_as_xyz
    x,y,z
loop_
    _atom_site_label
    _atom_site_type_symbol
    _atom_site_fract_x
    _atom_site_fract_y
    _atom_site_fract_z
    _atom_site_occupancy
    Zr0     Zr   0.62444   0.52168   0.00248   1.000
    Zr1     Zr   0.12443   0.47840   0.99748   1.000
    Zr2     Zr   0.87448   0.49748   0.02164   1.000
    Zr3     Zr   0.37440   0.50248   0.97836   1.000
    Zr4     Zr   0.62560   0.97841   0.50248   1.000
    Zr5     Zr   0.12557   0.02166   0.49740   1.000
    Zr6     Zr   0.37562   0.00246   0.52164   1.000
    Zr7     Zr   0.87559   0.99751   0.47830   1.000
    Zr8     Zr   0.60952   0.65447   0.87386   1.000
    Zr9     Zr   0.55713   0.70928   0.81630   1.000
    Zr10    Zr   0.44235   0.70852   0.81510   1.000
    Zr11    Zr   0.38940   0.65023   0.86881   1.000
    Zr12    Zr   0.10955   0.34557   0.12609   1.000
    Zr13    Zr   0.05715   0.29073   0.18365   1.000
    Zr14    Zr   0.94240   0.29151   0.18488   1.000
    Zr15    Zr   0.88947   0.34977   0.13122   1.000
    Zr16    Zr   0.85956   0.62613   0.15440   1.000
    Zr17    Zr   0.80716   0.68364   0.20929   1.000
    Zr18    Zr   0.69238   0.68491   0.20845   1.000
    Zr19    Zr   0.63945   0.63121   0.15022   1.000
    Zr20    Zr   0.35951   0.37390   0.84552   1.000
    Zr21    Zr   0.30712   0.31631   0.79070   1.000
    Zr22    Zr   0.19234   0.31519   0.79145   1.000
    Zr23    Zr   0.13939   0.36883   0.84976   1.000
    Zr24    Zr   0.64048   0.84560   0.37380   1.000
    Zr25    Zr   0.69289   0.79077   0.31630   1.000
    Zr26    Zr   0.80767   0.79150   0.31514   1.000
    Zr27    Zr   0.86060   0.84979   0.36879   1.000
    Zr28    Zr   0.14051   0.15446   0.62608   1.000
    Zr29    Zr   0.19288   0.20929   0.68364   1.000
    Zr30    Zr   0.30766   0.20849   0.68485   1.000
    Zr31    Zr   0.36061   0.15020   0.63118   1.000
    Zr32    Zr   0.39053   0.87391   0.65440   1.000
    Zr33    Zr   0.44291   0.81635   0.70928   1.000
    Zr34    Zr   0.55769   0.81517   0.70840   1.000
    Zr35    Zr   0.61064   0.86882   0.65019   1.000
    Zr36    Zr   0.89049   0.12608   0.34555   1.000
    Zr37    Zr   0.94290   0.18370   0.29078   1.000
    Zr38    Zr   0.05765   0.18483   0.29146   1.000
    Zr39    Zr   0.11057   0.13123   0.34978   1.000
    Zr40    Zr   0.55497   0.60182   0.92259   1.000
    Zr41    Zr   0.44342   0.59857   0.91884   1.000
    Zr42    Zr   0.05503   0.39828   0.07744   1.000
    Zr43    Zr   0.94350   0.40139   0.08111   1.000
    Zr44    Zr   0.80503   0.57743   0.10173   1.000
    Zr45    Zr   0.69348   0.58115   0.09856   1.000
    Zr46    Zr   0.30497   0.42261   0.89819   1.000
    Zr47    Zr   0.19342   0.41886   0.90141   1.000
    Zr48    Zr   0.69501   0.89825   0.42258   1.000
    Zr49    Zr   0.80656   0.90146   0.41883   1.000
    Zr50    Zr   0.19504   0.10173   0.57743   1.000
    Zr51    Zr   0.30660   0.09860   0.58108   1.000
    Zr52    Zr   0.44507   0.92256   0.60173   1.000
    Zr53    Zr   0.55663   0.91892   0.59800   1.000
    Zr54    Zr   0.94502   0.07741   0.39823   1.000
    Zr55    Zr   0.05653   0.08117   0.40142   1.000
    Zr56    Zr   0.74937   0.44199   0.92371   1.000
    Zr57    Zr   0.24929   0.55805   0.07632   1.000
    Zr58    Zr   0.99939   0.57636   0.94190   1.000
    Zr59    Zr   0.49929   0.42371   0.05798   1.000
    Zr60    Zr   0.50074   0.05804   0.42368   1.000
    Zr61    Zr   0.00064   0.94201   0.57628   1.000
    Zr62    Zr   0.25070   0.92371   0.44201   1.000
    Zr63    Zr   0.75070   0.07635   0.55802   1.000
    O64     O    0.65896   0.55142   0.05052   1.000
    O65     O    0.58970   0.56175   0.96254   1.000
    O66     O    0.68690   0.48184   0.96309   1.000
    O67     O    0.90899   0.44943   0.05137   1.000
    O68     O    0.83976   0.53746   0.06168   1.000
    O69     O    0.93694   0.53692   0.98177   1.000
    O70     O    0.43684   0.46309   0.01817   1.000
    O71     O    0.18686   0.51822   0.03690   1.000
    O72     O    0.99926   0.39983   0.07927   1.000
    O73     O    0.08229   0.37192   0.10176   1.000
    O74     O    0.08973   0.43834   0.03746   1.000
    O75     O    0.91648   0.37558   0.10617   1.000
    O76     O    0.74925   0.57929   0.10014   1.000
    O77     O    0.66646   0.60618   0.12439   1.000
    O78     O    0.83230   0.60178   0.12806   1.000
    O79     O    0.08335   0.31815   0.15487   1.000
    O80     O    0.91593   0.32064   0.15805   1.000
    O81     O    0.66591   0.65806   0.17933   1.000
    O82     O    0.83336   0.65489   0.18185   1.000
    O83     O    0.99977   0.29112   0.18426   1.000
    O84     O    0.74977   0.68428   0.20887   1.000
    O85     O    0.00028   0.18427   0.29112   1.000
    O86     O    0.91670   0.15489   0.31817   1.000
    O87     O    0.08411   0.15803   0.32062   1.000
    O88     O    0.75028   0.79114   0.31572   1.000
    O89     O    0.83414   0.82065   0.34197   1.000
    O90     O    0.66669   0.81818   0.34505   1.000
    O91     O    0.91775   0.10174   0.37189   1.000
    O92     O    0.08355   0.10620   0.37560   1.000
    O93     O    0.83358   0.87562   0.39381   1.000
    O94     O    0.66775   0.87192   0.39819   1.000
    O95     O    0.00077   0.07929   0.39982   1.000
    O96     O    0.91030   0.03746   0.43827   1.000
    O97     O    0.09105   0.05141   0.44941   1.000
    O98     O    0.75079   0.89985   0.42070   1.000
    O99     O    0.84107   0.94949   0.44856   1.000
    O100    O    0.66031   0.93833   0.46253   1.000
    O101    O    0.56317   0.01822   0.46308   1.000
    O102    O    0.31316   0.96308   0.48182   1.000
    O103    O    0.81314   0.03693   0.51816   1.000
    O104    O    0.06311   0.98184   0.53684   1.000
    O105    O    0.16031   0.06170   0.53742   1.000
    O106    O    0.59112   0.94866   0.55024   1.000
    O107    O    0.34111   0.05053   0.55136   1.000
    O108    O    0.41034   0.96251   0.56168   1.000
    O109    O    0.25082   0.10017   0.57926   1.000
    O110    O    0.16777   0.12810   0.60176   1.000
    O111    O    0.33361   0.12440   0.60613   1.000
    O112    O    0.50085   0.92074   0.59986   1.000
    O113    O    0.58364   0.89387   0.62410   1.000
    O114    O    0.41780   0.89823   0.62806   1.000
    O115    O    0.16670   0.18188   0.65486   1.000
    O116    O    0.33414   0.17934   0.65801   1.000
    O117    O    0.58417   0.84199   0.67929   1.000
    O118    O    0.41672   0.84513   0.68184   1.000
    O119    O    0.25027   0.20889   0.68424   1.000
    O120    O    0.50030   0.81576   0.70884   1.000
    O121    O    0.24973   0.31575   0.79107   1.000
    O122    O    0.33332   0.34511   0.81811   1.000
    O123    O    0.16586   0.34201   0.82060   1.000
    O124    O    0.49974   0.70890   0.81570   1.000
    O125    O    0.41588   0.67937   0.84196   1.000
    O126    O    0.58332   0.68188   0.84508   1.000
    O127    O    0.33224   0.39826   0.87185   1.000
    O128    O    0.16640   0.39385   0.87559   1.000
    O129    O    0.41641   0.62440   0.89382   1.000
    O130    O    0.58224   0.62814   0.89822   1.000
    O131    O    0.24919   0.42074   0.89980   1.000
    O132    O    0.33968   0.46254   0.93827   1.000
    O133    O    0.15892   0.44863   0.94944   1.000
    O134    O    0.49920   0.60019   0.92071   1.000
    O135    O    0.40891   0.55052   0.94860   1.000
    N136    N    0.23831   0.77250   0.77191   1.000
    O137    O    0.28384   0.71006   0.82014   1.000
    O138    O    0.28443   0.82477   0.71329   1.000
    O139    O    0.32598   0.78084   0.75368   1.000
    O140    O    0.32584   0.75388   0.78014   1.000
    N141    N    0.51172   0.27248   0.72808   1.000
    O142    O    0.42405   0.28081   0.74631   1.000
    O143    O    0.42419   0.25386   0.71985   1.000
    O144    O    0.46561   0.32476   0.78669   1.000
    O145    O    0.46618   0.21003   0.67986   1.000
    N146    N    0.26172   0.22812   0.22741   1.000
    O147    O    0.21616   0.17989   0.28989   1.000
    O148    O    0.21563   0.28673   0.17498   1.000
    O149    O    0.17418   0.21988   0.24607   1.000
    O150    O    0.17406   0.24635   0.21912   1.000
    N151    N    0.76173   0.77193   0.77244   1.000
    O152    O    0.71562   0.71332   0.82472   1.000
    O153    O    0.71620   0.82016   0.71001   1.000
    O154    O    0.67420   0.78016   0.75381   1.000
    O155    O    0.67406   0.75369   0.78079   1.000
    N156    N    0.98832   0.27193   0.72749   1.000
    O157    O    0.03384   0.32016   0.78993   1.000
    O158    O    0.03442   0.21331   0.67522   1.000
    O159    O    0.07583   0.28016   0.74611   1.000
    O160    O    0.07597   0.25369   0.71915   1.000
    N161    N    0.48831   0.72815   0.27248   1.000
    O162    O    0.57584   0.71990   0.25385   1.000
    O163    O    0.57597   0.74637   0.28082   1.000
    O164    O    0.53387   0.67991   0.21004   1.000
    O165    O    0.53440   0.78676   0.32473   1.000
    N166    N    0.01170   0.72750   0.27187   1.000
    O167    O    0.96562   0.67523   0.21326   1.000
    O168    O    0.96617   0.78995   0.32010   1.000
    O169    O    0.92419   0.74613   0.28011   1.000
    O170    O    0.92406   0.71917   0.25365   1.000
    N171    N    0.73833   0.22749   0.22814   1.000
    O172    O    0.82599   0.21917   0.24636   1.000
    O173    O    0.82586   0.24612   0.21989   1.000
    O174    O    0.78442   0.17521   0.28673   1.000
    O175    O    0.78389   0.28993   0.17990   1.000
loop_
    _geom_bond_atom_site_label_1
    _geom_bond_atom_site_label_2
    _geom_bond_distance
    _geom_bond_site_symmetry_2
    _ccdc_geom_bond_type
    Zr0    O64       0.99978      .   S
    Zr45   O64       0.99978      .   S
    Zr0    O65       1.00207  1_554   S
    Zr40   O65       1.00207      .   S
    Zr0    O66       1.18597  1_554   S
    Zr56   O66       1.18597      .   S
    Zr2    O67       0.99972      .   S
    Zr43   O67       0.99972      .   S
    Zr2    O68       1.00188      .   S
    Zr44   O68       1.00188      .   S
    Zr2    O69       1.18645  1_554   S
    Zr58   O69       1.18645      .   S
    Zr59   O70       1.18587      .   S
    Zr3    O70       1.18587  1_556   S
    Zr57   O71       1.18603      .   S
    Zr1    O71       1.18603  1_556   S
    Zr42   O72       0.69617  1_455   S
    Zr43   O72       0.69617      .   S
    Zr42   O73       0.66609      .   S
    Zr12   O73       0.66609      .   S
    Zr42   O74       1.00188      .   S
    Zr1    O74       1.00188  1_556   S
    Zr43   O75       0.66575      .   S
    Zr15   O75       0.66575      .   S
    Zr45   O76       0.69637      .   S
    Zr44   O76       0.69637      .   S
    Zr45   O77       0.66573      .   S
    Zr19   O77       0.66573      .   S
    Zr44   O78       0.66606      .   S
    Zr16   O78       0.66606      .   S
    Zr12   O79       0.71381      .   S
    Zr13   O79       0.71381      .   S
    Zr15   O80       0.71343      .   S
    Zr14   O80       0.71343      .   S
    Zr19   O81       0.71346      .   S
    Zr18   O81       0.71346      .   S
    Zr16   O82       0.71385      .   S
    Zr17   O82       0.71385      .   S
    Zr13   O83       0.71525  1_455   S
    Zr14   O83       0.71525      .   S
    Zr18   O84       0.71546      .   S
    Zr17   O84       0.71546      .   S
    Zr37   O85       0.71526  1_655   S
    Zr38   O85       0.71526      .   S
    Zr37   O86       0.71383      .   S
    Zr36   O86       0.71383      .   S
    Zr38   O87       0.71346      .   S
    Zr39   O87       0.71346      .   S
    Zr26   O88       0.71546      .   S
    Zr25   O88       0.71546      .   S
    Zr26   O89       0.71346      .   S
    Zr27   O89       0.71346      .   S
    Zr25   O90       0.71349      .   S
    Zr24   O90       0.71349      .   S
    Zr36   O91       0.66604      .   S
    Zr54   O91       0.66604      .   S
    Zr39   O92       0.66569      .   S
    Zr55   O92       0.66569      .   S
    Zr27   O93       0.66572      .   S
    Zr49   O93       0.66572      .   S
    Zr24   O94       0.66634      .   S
    Zr48   O94       0.66634      .   S
    Zr54   O95       0.69614  1_655   S
    Zr55   O95       0.69614      .   S
    Zr54   O96       1.00136      .   S
    Zr7    O96       1.00136  1_565   S
    Zr55   O97       0.99937      .   S
    Zr5    O97       0.99937      .   S
    Zr49   O98       0.69636      .   S
    Zr48   O98       0.69636      .   S
    Zr49   O99       0.99942      .   S
    Zr7    O99       0.99942      .   S
    Zr48   O100      1.00184      .   S
    Zr4    O100      1.00184      .   S
    Zr60   O101      1.18590      .   S
    Zr4    O101      1.18590  1_565   S
    Zr62   O102      1.18579      .   S
    Zr6    O102      1.18579  1_545   S
    Zr7    O103      1.18618  1_565   S
    Zr63   O103      1.18618      .   S
    Zr5    O104      1.18619  1_545   S
    Zr61   O104      1.18619      .   S
    Zr5    O105      1.00235      .   S
    Zr50   O105      1.00235      .   S
    Zr4    O106      0.99597      .   S
    Zr53   O106      0.99597      .   S
    Zr6    O107      0.99973      .   S
    Zr51   O107      0.99973      .   S
    Zr6    O108      1.00186  1_545   S
    Zr52   O108      1.00186      .   S
    Zr50   O109      0.69638      .   S
    Zr51   O109      0.69638      .   S
    Zr50   O110      0.66605      .   S
    Zr28   O110      0.66605      .   S
    Zr51   O111      0.66573      .   S
    Zr31   O111      0.66573      .   S
    Zr53   O112      0.69657      .   S
    Zr52   O112      0.69657      .   S
    Zr53   O113      0.66870      .   S
    Zr35   O113      0.66870      .   S
    Zr52   O114      0.66572      .   S
    Zr32   O114      0.66572      .   S
    Zr28   O115      0.71385      .   S
    Zr29   O115      0.71385      .   S
    Zr31   O116      0.71347      .   S
    Zr30   O116      0.71347      .   S
    Zr35   O117      0.71301      .   S
    Zr34   O117      0.71301      .   S
    Zr32   O118      0.71414      .   S
    Zr33   O118      0.71414      .   S
    Zr29   O119      0.71546      .   S
    Zr30   O119      0.71546      .   S
    Zr34   O120      0.71547      .   S
    Zr33   O120      0.71547      .   S
    Zr21   O121      0.71546      .   S
    Zr22   O121      0.71546      .   S
    Zr21   O122      0.71399      .   S
    Zr20   O122      0.71399      .   S
    Zr22   O123      0.71348      .   S
    Zr23   O123      0.71348      .   S
    Zr10   O124      0.71546      .   S
    Zr9    O124      0.71546      .   S
    Zr10   O125      0.71370      .   S
    Zr11   O125      0.71370      .   S
    Zr9    O126      0.71387      .   S
    Zr8    O126      0.71387      .   S
    Zr20   O127      0.66605      .   S
    Zr46   O127      0.66605      .   S
    Zr23   O128      0.66572      .   S
    Zr47   O128      0.66572      .   S
    Zr11   O129      0.66576      .   S
    Zr41   O129      0.66576      .   S
    Zr8    O130      0.66602      .   S
    Zr40   O130      0.66602      .   S
    Zr46   O131      0.69635      .   S
    Zr47   O131      0.69635      .   S
    Zr46   O132      1.00193      .   S
    Zr3    O132      1.00193      .   S
    Zr47   O133      0.99961      .   S
    Zr1    O133      0.99961      .   S
    Zr41   O134      0.69637      .   S
    Zr40   O134      0.69637      .   S
    Zr41   O135      0.99969      .   S
    Zr3    O135      0.99969      .   S
    N136   O137      1.38208      .   S
    Zr11   O137      1.80261      .   S
    N136   O138      1.37962      .   S
    Zr32   O138      1.80233      .   S
    N136   O139      1.13856      .   S
    Zr33   O139      1.71699      .   S
    N136   O140      1.13844      .   S
    Zr10   O140      1.71662      .   S
    N141   O142      1.13856      .   S
    Zr21   O142      1.71689      .   S
    N141   O143      1.13846      .   S
    Zr30   O143      1.71680      .   S
    N141   O144      1.37951      .   S
    Zr20   O144      1.80194      .   S
    N141   O145      1.38199      .   S
    Zr31   O145      1.80251      .   S
    N146   O147      1.38234      .   S
    Zr39   O147      1.80276      .   S
    N146   O148      1.38120      .   S
    Zr12   O148      1.80053      .   S
    N146   O149      1.13857      .   S
    Zr38   O149      1.71693      .   S
    N146   O150      1.13857      .   S
    Zr13   O150      1.71690      .   S
    N151   O152      1.37950      .   S
    Zr8    O152      1.80198      .   S
    N151   O153      1.38203      .   S
    Zr35   O153      1.80259      .   S
    N151   O154      1.13855      .   S
    Zr34   O154      1.71723      .   S
    N151   O155      1.13860      .   S
    Zr9    O155      1.71703      .   S
    N156   O157      1.38196  1_655   S
    Zr23   O157      1.80244      .   S
    N156   O158      1.37950  1_655   S
    Zr28   O158      1.80196      .   S
    N156   O159      1.13832  1_655   S
    Zr22   O159      1.71662      .   S
    N156   O160      1.13846  1_655   S
    Zr29   O160      1.71690      .   S
    N161   O162      1.13845      .   S
    Zr18   O162      1.71683      .   S
    N161   O163      1.13859      .   S
    Zr25   O163      1.71706      .   S
    N161   O164      1.38198      .   S
    Zr19   O164      1.80248      .   S
    N161   O165      1.37935      .   S
    Zr24   O165      1.80166      .   S
    N166   O167      1.37948  1_455   S
    Zr16   O167      1.80202      .   S
    N166   O168      1.38196  1_455   S
    Zr27   O168      1.80241      .   S
    N166   O169      1.13832  1_455   S
    Zr26   O169      1.71663      .   S
    N166   O170      1.13846  1_455   S
    Zr17   O170      1.71689      .   S
    N171   O172      1.13865      .   S
    Zr37   O172      1.71717      .   S
    N171   O173      1.13845      .   S
    Zr14   O173      1.71678      .   S
    N171   O174      1.37960      .   S
    Zr36   O174      1.80214      .   S
    N171   O175      1.38194      .   S
    Zr15   O175      1.80238      .   S
