# CIF file generated by openbabel 2.4.90, see http://openbabel.sf.net
data_I
_chemical_name_common ''
_cell_length_a 12.465
_cell_length_b 15.968
_cell_length_c 15.972
_cell_angle_alpha 90.002
_cell_angle_beta 89.977
_cell_angle_gamma 90.007
_space_group_name_H-M_alt 'P 1'
_space_group_name_Hall 'P 1'
loop_
    _symmetry_equiv_pos_as_xyz
    x,y,z
loop_
    _atom_site_label
    _atom_site_type_symbol
    _atom_site_fract_x
    _atom_site_fract_y
    _atom_site_fract_z
    _atom_site_occupancy
    C0      C    0.62444   0.52168   0.00248   1.000
    C1      C    0.12443   0.47840   0.99748   1.000
    C2      C    0.87448   0.49748   0.02164   1.000
    C3      C    0.37440   0.50248   0.97836   1.000
    C4      C    0.62560   0.97841   0.50248   1.000
    C5      C    0.12557   0.02166   0.49740   1.000
    C6      C    0.37562   0.00246   0.52164   1.000
    C7      C    0.87559   0.99751   0.47830   1.000
    C8      C    0.24520   0.59559   0.82333   1.000
    C9      C    0.24041   0.62419   0.92950   1.000
    C10     C    0.76133   0.70967   0.71735   1.000
    C11     C    0.75348   0.64203   0.94502   1.000
    C12     C    0.76095   0.60093   0.84468   1.000
    C13     C    0.13087   0.72043   0.83876   1.000
    C14     C    0.23336   0.77515   0.89238   1.000
    C15     C    0.86663   0.73010   0.84721   1.000
    C16     C    0.75997   0.78814   0.89204   1.000
    C17     C    0.74524   0.40440   0.17672   1.000
    C18     C    0.74054   0.37579   0.07055   1.000
    C19     C    0.26131   0.29038   0.28257   1.000
    C20     C    0.25357   0.35803   0.05490   1.000
    C21     C    0.26098   0.39912   0.15524   1.000
    C22     C    0.63093   0.27954   0.16134   1.000
    C23     C    0.73343   0.22484   0.10767   1.000
    C24     C    0.36666   0.26997   0.15266   1.000
    C25     C    0.26000   0.21190   0.10780   1.000
    C26     C    0.49525   0.67675   0.09560   1.000
    C27     C    0.49050   0.57055   0.12418   1.000
    C28     C    0.01134   0.78261   0.20964   1.000
    C29     C    0.00350   0.55488   0.14200   1.000
    C30     C    0.01100   0.65524   0.10092   1.000
    C31     C    0.38090   0.66132   0.22043   1.000
    C32     C    0.48336   0.60765   0.27510   1.000
    C33     C    0.11661   0.65268   0.23003   1.000
    C34     C    0.00991   0.60788   0.28808   1.000
    C35     C    0.99516   0.32337   0.90436   1.000
    C36     C    0.99048   0.42956   0.87576   1.000
    C37     C    0.51127   0.21737   0.79033   1.000
    C38     C    0.50350   0.44509   0.85790   1.000
    C39     C    0.51093   0.34472   0.89905   1.000
    C40     C    0.88091   0.33877   0.77955   1.000
    C41     C    0.98344   0.39242   0.72485   1.000
    C42     C    0.61663   0.34728   0.76990   1.000
    C43     C    0.51000   0.39211   0.71189   1.000
    C44     C    0.00481   0.90442   0.32329   1.000
    C45     C    0.00950   0.87581   0.42946   1.000
    C46     C    0.48875   0.79041   0.21739   1.000
    C47     C    0.49647   0.85805   0.44506   1.000
    C48     C    0.48907   0.89914   0.34472   1.000
    C49     C    0.11910   0.77956   0.33868   1.000
    C50     C    0.01658   0.72486   0.39233   1.000
    C51     C    0.38337   0.76998   0.34729   1.000
    C52     C    0.49001   0.71193   0.39208   1.000
    C53     C    0.50479   0.09557   0.67669   1.000
    C54     C    0.50960   0.12415   0.57052   1.000
    C55     C    0.98869   0.20968   0.78259   1.000
    C56     C    0.99657   0.14201   0.55492   1.000
    C57     C    0.98908   0.10092   0.65526   1.000
    C58     C    0.61915   0.22040   0.66126   1.000
    C59     C    0.51669   0.27511   0.60762   1.000
    C60     C    0.88343   0.23007   0.65273   1.000
    C61     C    0.99011   0.28813   0.60791   1.000
    C62     C    0.75487   0.82333   0.59557   1.000
    C63     C    0.75961   0.92953   0.62415   1.000
    C64     C    0.23873   0.71738   0.70969   1.000
    C65     C    0.24657   0.94511   0.64205   1.000
    C66     C    0.23909   0.84474   0.60090   1.000
    C67     C    0.86916   0.83877   0.72036   1.000
    C68     C    0.76665   0.89243   0.77507   1.000
    C69     C    0.13340   0.84729   0.73011   1.000
    C70     C    0.24005   0.89212   0.78810   1.000
    C71     C    0.25479   0.17669   0.40435   1.000
    C72     C    0.25951   0.07050   0.37574   1.000
    C73     C    0.73871   0.28261   0.29038   1.000
    C74     C    0.74650   0.05489   0.35803   1.000
    C75     C    0.73903   0.15526   0.39910   1.000
    C76     C    0.36913   0.16130   0.27950   1.000
    C77     C    0.26663   0.10764   0.22483   1.000
    C78     C    0.63341   0.15267   0.26999   1.000
    C79     C    0.74008   0.10786   0.21194   1.000
    C80     C    0.60952   0.65447   0.87386   1.000
    C81     C    0.55713   0.70928   0.81630   1.000
    C82     C    0.61567   0.76163   0.76198   1.000
    C83     C    0.44235   0.70852   0.81510   1.000
    C84     C    0.38940   0.65023   0.86881   1.000
    C85     C    0.26935   0.64500   0.86793   1.000
    C86     C    0.73677   0.75994   0.76130   1.000
    C87     C    0.72949   0.65494   0.88013   1.000
    C88     C    0.21828   0.72842   0.84289   1.000
    C89     C    0.77886   0.73663   0.84840   1.000
    C90     C    0.10955   0.34557   0.12609   1.000
    C91     C    0.05715   0.29073   0.18365   1.000
    C92     C    0.11566   0.23843   0.23800   1.000
    C93     C    0.94240   0.29151   0.18488   1.000
    C94     C    0.88947   0.34977   0.13122   1.000
    C95     C    0.76942   0.35498   0.13212   1.000
    C96     C    0.23676   0.24011   0.23862   1.000
    C97     C    0.22953   0.34511   0.11900   1.000
    C98     C    0.71834   0.27156   0.15718   1.000
    C99     C    0.27888   0.26343   0.15150   1.000
    C100    C    0.85956   0.62613   0.15440   1.000
    C101    C    0.80716   0.68364   0.20929   1.000
    C102    C    0.86568   0.73802   0.26157   1.000
    C103    C    0.69238   0.68491   0.20845   1.000
    C104    C    0.63945   0.63121   0.15022   1.000
    C105    C    0.51940   0.63214   0.14499   1.000
    C106    C    0.98678   0.73865   0.25989   1.000
    C107    C    0.97953   0.61979   0.15492   1.000
    C108    C    0.46830   0.65717   0.22840   1.000
    C109    C    0.02884   0.65151   0.23650   1.000
    C110    C    0.35951   0.37390   0.84552   1.000
    C111    C    0.30712   0.31631   0.79070   1.000
    C112    C    0.36565   0.26200   0.73837   1.000
    C113    C    0.19234   0.31519   0.79145   1.000
    C114    C    0.13939   0.36883   0.84976   1.000
    C115    C    0.01933   0.36796   0.85496   1.000
    C116    C    0.48675   0.26133   0.74008   1.000
    C117    C    0.47949   0.38018   0.84506   1.000
    C118    C    0.96832   0.34291   0.77156   1.000
    C119    C    0.52886   0.34846   0.76338   1.000
    C120    C    0.64048   0.84560   0.37380   1.000
    C121    C    0.69289   0.79077   0.31630   1.000
    C122    C    0.63437   0.73841   0.26201   1.000
    C123    C    0.80767   0.79150   0.31514   1.000
    C124    C    0.86060   0.84979   0.36879   1.000
    C125    C    0.98066   0.85500   0.36789   1.000
    C126    C    0.51327   0.74014   0.26133   1.000
    C127    C    0.52050   0.84513   0.38017   1.000
    C128    C    0.03169   0.77158   0.34284   1.000
    C129    C    0.47114   0.76344   0.34845   1.000
    C130    C    0.14051   0.15446   0.62608   1.000
    C131    C    0.19288   0.20929   0.68364   1.000
    C132    C    0.13435   0.26161   0.73799   1.000
    C133    C    0.30766   0.20849   0.68485   1.000
    C134    C    0.36061   0.15020   0.63118   1.000
    C135    C    0.48066   0.14497   0.63208   1.000
    C136    C    0.01325   0.25994   0.73864   1.000
    C137    C    0.02053   0.15493   0.61981   1.000
    C138    C    0.53175   0.22839   0.65712   1.000
    C139    C    0.97120   0.23661   0.65153   1.000
    C140    C    0.39053   0.87391   0.65440   1.000
    C141    C    0.44291   0.81635   0.70928   1.000
    C142    C    0.38437   0.76201   0.76162   1.000
    C143    C    0.55769   0.81517   0.70840   1.000
    C144    C    0.61064   0.86882   0.65019   1.000
    C145    C    0.73070   0.86795   0.64497   1.000
    C146    C    0.26327   0.76135   0.75990   1.000
    C147    C    0.27055   0.88019   0.65495   1.000
    C148    C    0.78175   0.84291   0.72836   1.000
    C149    C    0.22117   0.84848   0.73660   1.000
    C150    C    0.89049   0.12608   0.34555   1.000
    C151    C    0.94290   0.18370   0.29078   1.000
    C152    C    0.88439   0.23798   0.23840   1.000
    C153    C    0.05765   0.18483   0.29146   1.000
    C154    C    0.11057   0.13123   0.34978   1.000
    C155    C    0.23063   0.13209   0.35494   1.000
    C156    C    0.76328   0.23864   0.24013   1.000
    C157    C    0.77051   0.11980   0.34511   1.000
    C158    C    0.28172   0.15715   0.27150   1.000
    C159    C    0.72118   0.15150   0.26340   1.000
    C160    C    0.55497   0.60182   0.92259   1.000
    C161    C    0.44342   0.59857   0.91884   1.000
    C162    C    0.05503   0.39828   0.07744   1.000
    C163    C    0.94350   0.40139   0.08111   1.000
    C164    C    0.80503   0.57743   0.10173   1.000
    C165    C    0.69348   0.58115   0.09856   1.000
    C166    C    0.30497   0.42261   0.89819   1.000
    C167    C    0.19342   0.41886   0.90141   1.000
    C168    C    0.69501   0.89825   0.42258   1.000
    C169    C    0.80656   0.90146   0.41883   1.000
    C170    C    0.19504   0.10173   0.57743   1.000
    C171    C    0.30660   0.09860   0.58108   1.000
    C172    C    0.44507   0.92256   0.60173   1.000
    C173    C    0.55663   0.91892   0.59800   1.000
    C174    C    0.94502   0.07741   0.39823   1.000
    C175    C    0.05653   0.08117   0.40142   1.000
    C176    C    0.74937   0.44199   0.92371   1.000
    C177    C    0.24929   0.55805   0.07632   1.000
    C178    C    0.99939   0.57636   0.94190   1.000
    C179    C    0.49929   0.42371   0.05798   1.000
    C180    C    0.50074   0.05804   0.42368   1.000
    C181    C    0.00064   0.94201   0.57628   1.000
    C182    C    0.25070   0.92371   0.44201   1.000
    C183    C    0.75070   0.07635   0.55802   1.000
    O184    O    0.65896   0.55142   0.05052   1.000
    O185    O    0.58970   0.56175   0.96254   1.000
    O186    O    0.68690   0.48184   0.96309   1.000
    O187    O    0.90899   0.44943   0.05137   1.000
    O188    O    0.83976   0.53746   0.06168   1.000
    O189    O    0.93694   0.53692   0.98177   1.000
    O190    O    0.24155   0.35157   0.08695   1.000
    O191    O    0.43684   0.46309   0.01817   1.000
    O192    O    0.75498   0.36539   0.10133   1.000
    O193    O    0.18686   0.51822   0.03690   1.000
    O194    O    0.99926   0.39983   0.07927   1.000
    O195    O    0.08229   0.37192   0.10176   1.000
    O196    O    0.08973   0.43834   0.03746   1.000
    O197    O    0.91648   0.37558   0.10617   1.000
    O198    O    0.50733   0.65444   0.12029   1.000
    O199    O    0.74925   0.57929   0.10014   1.000
    O200    O    0.66646   0.60618   0.12439   1.000
    O201    O    0.99527   0.63751   0.12792   1.000
    O202    O    0.83230   0.60178   0.12806   1.000
    O203    O    0.72589   0.24820   0.13242   1.000
    O204    O    0.26944   0.23767   0.12965   1.000
    O205    O    0.16954   0.34534   0.12254   1.000
    O206    O    0.25421   0.30427   0.13525   1.000
    O207    O    0.24525   0.37212   0.13712   1.000
    O208    O    0.50495   0.60134   0.13459   1.000
    O209    O    0.08335   0.31815   0.15487   1.000
    O210    O    0.82944   0.35238   0.13167   1.000
    O211    O    0.91593   0.32064   0.15805   1.000
    O212    O    0.74388   0.31327   0.14465   1.000
    O213    O    0.75733   0.37969   0.15442   1.000
    O214    O    0.99151   0.58733   0.14846   1.000
    O215    O    0.57942   0.63167   0.14760   1.000
    O216    O    0.49385   0.64465   0.18669   1.000
    O217    O    0.66591   0.65806   0.17933   1.000
    O218    O    0.32277   0.26670   0.15208   1.000
    O219    O    0.25782   0.25177   0.19506   1.000
    O220    O    0.91955   0.62296   0.15466   1.000
    O221    O    0.83336   0.65489   0.18185   1.000
    O222    O    0.00418   0.63565   0.19571   1.000
    O223    O    0.67463   0.27555   0.15926   1.000
    O224    O    0.74081   0.25510   0.19865   1.000
    O225    O    0.99977   0.29112   0.18426   1.000
    O226    O    0.08640   0.26458   0.21083   1.000
    O227    O    0.91339   0.26475   0.21164   1.000
    O228    O    0.74977   0.68428   0.20887   1.000
    O229    O    0.66338   0.71166   0.23523   1.000
    O230    O    0.83642   0.71083   0.23543   1.000
    O231    O    0.99906   0.76063   0.23477   1.000
    O232    O    0.73063   0.12968   0.23767   1.000
    O233    O    0.50101   0.76527   0.23936   1.000
    O234    O    0.42460   0.65925   0.22441   1.000
    O235    O    0.27418   0.13239   0.24817   1.000
    O236    O    0.49079   0.69865   0.24486   1.000
    O237    O    0.47583   0.63241   0.25175   1.000
    O238    O    0.07272   0.65210   0.23327   1.000
    O239    O    0.00781   0.69508   0.24819   1.000
    O240    O    0.01937   0.62970   0.26229   1.000
    O241    O    0.17621   0.23927   0.23831   1.000
    O242    O    0.08665   0.21163   0.26473   1.000
    O243    O    0.82384   0.23831   0.23927   1.000
    O244    O    0.91364   0.21084   0.26459   1.000
    O245    O    0.25924   0.19863   0.25506   1.000
    O246    O    0.24903   0.26525   0.26060   1.000
    O247    O    0.74223   0.19507   0.25177   1.000
    O248    O    0.75100   0.26062   0.26526   1.000
    O249    O    0.92623   0.73833   0.26073   1.000
    O250    O    0.00924   0.75512   0.30136   1.000
    O251    O    0.57382   0.73927   0.26167   1.000
    O252    O    0.49221   0.75179   0.30489   1.000
    O253    O    0.83667   0.76476   0.28836   1.000
    O254    O    0.66363   0.76459   0.28916   1.000
    O255    O    0.67730   0.15209   0.26670   1.000
    O256    O    0.74585   0.13565   0.30425   1.000
    O257    O    0.32542   0.15923   0.27550   1.000
    O258    O    0.25617   0.14462   0.31322   1.000
    O259    O    0.00028   0.18427   0.29112   1.000
    O260    O    0.91670   0.15489   0.31817   1.000
    O261    O    0.08411   0.15803   0.32062   1.000
    O262    O    0.75028   0.79114   0.31572   1.000
    O263    O    0.83414   0.82065   0.34197   1.000
    O264    O    0.66669   0.81818   0.34505   1.000
    O265    O    0.99274   0.87971   0.34559   1.000
    O266    O    0.07540   0.77557   0.34076   1.000
    O267    O    0.00617   0.81329   0.35536   1.000
    O268    O    0.02413   0.74822   0.36758   1.000
    O269    O    0.50478   0.87213   0.36245   1.000
    O270    O    0.83050   0.12294   0.34533   1.000
    O271    O    0.75850   0.08734   0.35157   1.000
    O272    O    0.75477   0.13753   0.37210   1.000
    O273    O    0.91775   0.10174   0.37189   1.000
    O274    O    0.42726   0.76671   0.34787   1.000
    O275    O    0.49582   0.80429   0.36431   1.000
    O276    O    0.48058   0.73769   0.37026   1.000
    O277    O    0.17060   0.13166   0.35236   1.000
    O278    O    0.08355   0.10620   0.37560   1.000
    O279    O    0.24507   0.10130   0.36534   1.000
    O280    O    0.24271   0.15439   0.37964   1.000
    O281    O    0.92063   0.85240   0.36834   1.000
    O282    O    0.99508   0.86541   0.39868   1.000
    O283    O    0.83358   0.87562   0.39381   1.000
    O284    O    0.58049   0.84536   0.37699   1.000
    O285    O    0.66775   0.87192   0.39819   1.000
    O286    O    0.50848   0.85159   0.41262   1.000
    O287    O    0.00077   0.07929   0.39982   1.000
    O288    O    0.91030   0.03746   0.43827   1.000
    O289    O    0.09105   0.05141   0.44941   1.000
    O290    O    0.75079   0.89985   0.42070   1.000
    O291    O    0.84107   0.94949   0.44856   1.000
    O292    O    0.66031   0.93833   0.46253   1.000
    O293    O    0.56317   0.01822   0.46308   1.000
    O294    O    0.31316   0.96308   0.48182   1.000
    O295    O    0.81314   0.03693   0.51816   1.000
    O296    O    0.06311   0.98184   0.53684   1.000
    O297    O    0.16031   0.06170   0.53742   1.000
    O298    O    0.59112   0.94866   0.55024   1.000
    O299    O    0.34111   0.05053   0.55136   1.000
    O300    O    0.41034   0.96251   0.56168   1.000
    O301    O    0.00855   0.14847   0.58737   1.000
    O302    O    0.49513   0.13456   0.60130   1.000
    O303    O    0.25082   0.10017   0.57926   1.000
    O304    O    0.16777   0.12810   0.60176   1.000
    O305    O    0.33361   0.12440   0.60613   1.000
    O306    O    0.74279   0.84564   0.62027   1.000
    O307    O    0.50085   0.92074   0.59986   1.000
    O308    O    0.58364   0.89387   0.62410   1.000
    O309    O    0.25482   0.86247   0.62793   1.000
    O310    O    0.41780   0.89823   0.62806   1.000
    O311    O    0.52422   0.25175   0.63237   1.000
    O312    O    0.98065   0.26237   0.62972   1.000
    O313    O    0.08052   0.15470   0.62294   1.000
    O314    O    0.99587   0.19577   0.63567   1.000
    O315    O    0.00481   0.12792   0.63753   1.000
    O316    O    0.74515   0.89874   0.63456   1.000
    O317    O    0.16670   0.18188   0.65486   1.000
    O318    O    0.42064   0.14759   0.63163   1.000
    O319    O    0.33414   0.17934   0.65801   1.000
    O320    O    0.50621   0.18668   0.64460   1.000
    O321    O    0.49272   0.12027   0.65438   1.000
    O322    O    0.25856   0.91265   0.64850   1.000
    O323    O    0.67067   0.86838   0.64758   1.000
    O324    O    0.75622   0.85543   0.68666   1.000
    O325    O    0.58417   0.84199   0.67929   1.000
    O326    O    0.92732   0.23334   0.65213   1.000
    O327    O    0.99222   0.24828   0.69508   1.000
    O328    O    0.33054   0.87705   0.65468   1.000
    O329    O    0.41672   0.84513   0.68184   1.000
    O330    O    0.24586   0.86434   0.69577   1.000
    O331    O    0.57545   0.22440   0.65919   1.000
    O332    O    0.50925   0.24486   0.69860   1.000
    O333    O    0.25027   0.20889   0.68424   1.000
    O334    O    0.16362   0.23545   0.71081   1.000
    O335    O    0.33666   0.23524   0.71161   1.000
    O336    O    0.50030   0.81576   0.70884   1.000
    O337    O    0.58668   0.78840   0.73519   1.000
    O338    O    0.41364   0.78918   0.73545   1.000
    O339    O    0.25100   0.73936   0.73479   1.000
    O340    O    0.51943   0.37028   0.73764   1.000
    O341    O    0.74905   0.73480   0.73933   1.000
    O342    O    0.82546   0.84084   0.72436   1.000
    O343    O    0.97588   0.36766   0.74820   1.000
    O344    O    0.75926   0.80142   0.74483   1.000
    O345    O    0.77420   0.86767   0.75172   1.000
    O346    O    0.17729   0.84788   0.73335   1.000
    O347    O    0.24222   0.80491   0.74825   1.000
    O348    O    0.23061   0.87030   0.76235   1.000
    O349    O    0.07380   0.26078   0.73831   1.000
    O350    O    0.16334   0.28840   0.76472   1.000
    O351    O    0.42620   0.26166   0.73923   1.000
    O352    O    0.33639   0.28915   0.76453   1.000
    O353    O    0.99078   0.30142   0.75510   1.000
    O354    O    0.00097   0.23481   0.76062   1.000
    O355    O    0.50781   0.30489   0.75173   1.000
    O356    O    0.49901   0.23935   0.76520   1.000
    O357    O    0.32382   0.76168   0.76076   1.000
    O358    O    0.24077   0.74488   0.80139   1.000
    O359    O    0.67622   0.76079   0.76164   1.000
    O360    O    0.75782   0.74828   0.80485   1.000
    O361    O    0.41336   0.73527   0.78836   1.000
    O362    O    0.58640   0.73546   0.78914   1.000
    O363    O    0.57275   0.34787   0.76664   1.000
    O364    O    0.50418   0.36432   0.80422   1.000
    O365    O    0.92461   0.34084   0.77555   1.000
    O366    O    0.99383   0.35544   0.81326   1.000
    O367    O    0.24973   0.31575   0.79107   1.000
    O368    O    0.33332   0.34511   0.81811   1.000
    O369    O    0.16586   0.34201   0.82060   1.000
    O370    O    0.49974   0.70890   0.81570   1.000
    O371    O    0.41588   0.67937   0.84196   1.000
    O372    O    0.58332   0.68188   0.84508   1.000
    O373    O    0.25727   0.62030   0.84563   1.000
    O374    O    0.17458   0.72442   0.84083   1.000
    O375    O    0.24381   0.68671   0.85541   1.000
    O376    O    0.22582   0.75178   0.86763   1.000
    O377    O    0.74522   0.62794   0.86240   1.000
    O378    O    0.41950   0.37704   0.84529   1.000
    O379    O    0.49149   0.41264   0.85148   1.000
    O380    O    0.49521   0.36245   0.87205   1.000
    O381    O    0.33224   0.39826   0.87185   1.000
    O382    O    0.82275   0.73336   0.84781   1.000
    O383    O    0.75418   0.69579   0.86427   1.000
    O384    O    0.76942   0.76239   0.87022   1.000
    O385    O    0.07936   0.36840   0.85236   1.000
    O386    O    0.16640   0.39385   0.87559   1.000
    O387    O    0.00490   0.39876   0.86536   1.000
    O388    O    0.00724   0.34567   0.87966   1.000
    O389    O    0.32937   0.64761   0.86837   1.000
    O390    O    0.25488   0.63459   0.89871   1.000
    O391    O    0.41641   0.62440   0.89382   1.000
    O392    O    0.66950   0.65471   0.87699   1.000
    O393    O    0.58224   0.62814   0.89822   1.000
    O394    O    0.74148   0.64849   0.91257   1.000
    O395    O    0.24919   0.42074   0.89980   1.000
    O396    O    0.33968   0.46254   0.93827   1.000
    O397    O    0.15892   0.44863   0.94944   1.000
    O398    O    0.49920   0.60019   0.92071   1.000
    O399    O    0.40891   0.55052   0.94860   1.000
loop_
    _geom_bond_atom_site_label_1
    _geom_bond_atom_site_label_2
    _geom_bond_distance
    _geom_bond_site_symmetry_2
    _ccdc_geom_bond_type
    C0     O184      0.99978      .   S
    C165   O184      0.99978      .   S
    C0     O185      1.00207  1_554   S
    C160   O185      1.00207      .   S
    C0     O186      1.18597  1_554   S
    C176   O186      1.18597      .   S
    C2     O187      0.99972      .   S
    C163   O187      0.99972      .   S
    C2     O188      1.00188      .   S
    C164   O188      1.00188      .   S
    C2     O189      1.18645  1_554   S
    C178   O189      1.18645      .   S
    C20    O190      0.54321      .   S
    C97    O190      0.54321      .   S
    C179   O191      1.18587      .   S
    C3     O191      1.18587  1_556   S
    C18    O192      0.54939      .   S
    C95    O192      0.54939      .   S
    C177   O193      1.18603      .   S
    C1     O193      1.18603  1_556   S
    C162   O194      0.69617  1_455   S
    C163   O194      0.69617      .   S
    C162   O195      0.66609      .   S
    C90    O195      0.66609      .   S
    C162   O196      1.00188      .   S
    C1     O196      1.00188  1_556   S
    C163   O197      0.66575      .   S
    C94    O197      0.66575      .   S
    C26    O198      0.55241      .   S
    C105   O198      0.55241      .   S
    C165   O199      0.69637      .   S
    C164   O199      0.69637      .   S
    C165   O200      0.66573      .   S
    C104   O200      0.66573      .   S
    C30    O201      0.55178  1_455   S
    C107   O201      0.55178      .   S
    C164   O202      0.66606      .   S
    C100   O202      0.66606      .   S
    C23    O203      0.55159      .   S
    C98    O203      0.55159      .   S
    C25    O204      0.55218      .   S
    C99    O204      0.55218      .   S
    C97    O205      0.74991      .   S
    C90    O205      0.74991      .   S
    C97    O206      0.76640      .   S
    C99    O206      0.76640      .   S
    C97    O207      0.55511      .   S
    C21    O207      0.55511      .   S
    C27    O208      0.54939      .   S
    C105   O208      0.54939      .   S
    C90    O209      0.71381      .   S
    C91    O209      0.71381      .   S
    C94    O210      0.74942      .   S
    C95    O210      0.74942      .   S
    C94    O211      0.71343      .   S
    C93    O211      0.71343      .   S
    C95    O212      0.76482      .   S
    C98    O212      0.76482      .   S
    C95    O213      0.55244      .   S
    C17    O213      0.55244      .   S
    C29    O214      0.54914  1_455   S
    C107   O214      0.54914      .   S
    C105   O215      0.74942      .   S
    C104   O215      0.74942      .   S
    C105   O216      0.76479      .   S
    C108   O216      0.76479      .   S
    C104   O217      0.71346      .   S
    C103   O217      0.71346      .   S
    C99    O218      0.54959      .   S
    C24    O218      0.54959      .   S
    C99    O219      0.76648      .   S
    C96    O219      0.76648      .   S
    C100   O220      0.74946      .   S
    C107   O220      0.74946      .   S
    C100   O221      0.71385      .   S
    C101   O221      0.71385      .   S
    C107   O222      0.76365  1_655   S
    C109   O222      0.76365      .   S
    C98    O223      0.54949      .   S
    C22    O223      0.54949      .   S
    C98    O224      0.76586      .   S
    C156   O224      0.76586      .   S
    C91    O225      0.71525  1_455   S
    C93    O225      0.71525      .   S
    C91    O226      0.70421      .   S
    C92    O226      0.70421      .   S
    C93    O227      0.70423      .   S
    C152   O227      0.70423      .   S
    C103   O228      0.71546      .   S
    C101   O228      0.71546      .   S
    C103   O229      0.70424      .   S
    C122   O229      0.70424      .   S
    C101   O230      0.70420      .   S
    C102   O230      0.70420      .   S
    C28    O231      0.55461  1_455   S
    C106   O231      0.55461      .   S
    C79    O232      0.55149      .   S
    C159   O232      0.55149      .   S
    C46    O233      0.55468      .   S
    C126   O233      0.55468      .   S
    C31    O234      0.54949      .   S
    C108   O234      0.54949      .   S
    C77    O235      0.55139      .   S
    C158   O235      0.55139      .   S
    C108   O236      0.76582      .   S
    C126   O236      0.76582      .   S
    C108   O237      0.55161      .   S
    C32    O237      0.55161      .   S
    C33    O238      0.54954      .   S
    C109   O238      0.54954      .   S
    C109   O239      0.76654      .   S
    C106   O239      0.76654  1_655   S
    C109   O240      0.55217      .   S
    C34    O240      0.55217      .   S
    C92    O241      0.75492      .   S
    C96    O241      0.75492      .   S
    C92    O242      0.70425      .   S
    C153   O242      0.70425      .   S
    C152   O243      0.75491      .   S
    C156   O243      0.75491      .   S
    C152   O244      0.70423      .   S
    C151   O244      0.70423      .   S
    C96    O245      0.76573      .   S
    C158   O245      0.76573      .   S
    C96    O246      0.55470      .   S
    C19    O246      0.55470      .   S
    C156   O247      0.76637      .   S
    C159   O247      0.76637      .   S
    C156   O248      0.55467      .   S
    C73    O248      0.55467      .   S
    C106   O249      0.75491      .   S
    C102   O249      0.75491      .   S
    C106   O250      0.76579  1_655   S
    C128   O250      0.76579      .   S
    C126   O251      0.75492      .   S
    C122   O251      0.75492      .   S
    C126   O252      0.76647      .   S
    C129   O252      0.76647      .   S
    C102   O253      0.70423      .   S
    C123   O253      0.70423      .   S
    C122   O254      0.70417      .   S
    C121   O254      0.70417      .   S
    C159   O255      0.54963      .   S
    C78    O255      0.54963      .   S
    C159   O256      0.76458      .   S
    C157   O256      0.76458      .   S
    C158   O257      0.54952      .   S
    C76    O257      0.54952      .   S
    C158   O258      0.76503      .   S
    C155   O258      0.76503      .   S
    C151   O259      0.71526  1_655   S
    C153   O259      0.71526      .   S
    C151   O260      0.71383      .   S
    C150   O260      0.71383      .   S
    C153   O261      0.71346      .   S
    C154   O261      0.71346      .   S
    C123   O262      0.71546      .   S
    C121   O262      0.71546      .   S
    C123   O263      0.71346      .   S
    C124   O263      0.71346      .   S
    C121   O264      0.71349      .   S
    C120   O264      0.71349      .   S
    C44    O265      0.55239  1_455   S
    C125   O265      0.55239      .   S
    C49    O266      0.54949      .   S
    C128   O266      0.54949      .   S
    C128   O267      0.76471      .   S
    C125   O267      0.76471  1_655   S
    C128   O268      0.55155      .   S
    C50    O268      0.55155      .   S
    C48    O269      0.55185      .   S
    C127   O269      0.55185      .   S
    C157   O270      0.74946      .   S
    C150   O270      0.74946      .   S
    C157   O271      0.54917      .   S
    C74    O271      0.54917      .   S
    C157   O272      0.55183      .   S
    C75    O272      0.55183      .   S
    C150   O273      0.66604      .   S
    C174   O273      0.66604      .   S
    C51    O274      0.54960      .   S
    C129   O274      0.54960      .   S
    C129   O275      0.76428      .   S
    C127   O275      0.76428      .   S
    C129   O276      0.55178      .   S
    C52    O276      0.55178      .   S
    C154   O277      0.74941      .   S
    C155   O277      0.74941      .   S
    C154   O278      0.66569      .   S
    C175   O278      0.66569      .   S
    C155   O279      0.54941      .   S
    C72    O279      0.54941      .   S
    C155   O280      0.55244      .   S
    C71    O280      0.55244      .   S
    C125   O281      0.74942      .   S
    C124   O281      0.74942      .   S
    C125   O282      0.54932      .   S
    C45    O282      0.54932  1_455   S
    C124   O283      0.66572      .   S
    C169   O283      0.66572      .   S
    C120   O284      0.74949      .   S
    C127   O284      0.74949      .   S
    C120   O285      0.66634      .   S
    C168   O285      0.66634      .   S
    C127   O286      0.54915      .   S
    C47    O286      0.54915      .   S
    C174   O287      0.69614  1_655   S
    C175   O287      0.69614      .   S
    C174   O288      1.00136      .   S
    C7     O288      1.00136  1_565   S
    C175   O289      0.99937      .   S
    C5     O289      0.99937      .   S
    C169   O290      0.69636      .   S
    C168   O290      0.69636      .   S
    C169   O291      0.99942      .   S
    C7     O291      0.99942      .   S
    C168   O292      1.00184      .   S
    C4     O292      1.00184      .   S
    C180   O293      1.18590      .   S
    C4     O293      1.18590  1_565   S
    C182   O294      1.18579      .   S
    C6     O294      1.18579  1_545   S
    C7     O295      1.18618  1_565   S
    C183   O295      1.18618      .   S
    C5     O296      1.18619  1_545   S
    C181   O296      1.18619      .   S
    C5     O297      1.00235      .   S
    C170   O297      1.00235      .   S
    C4     O298      0.99597      .   S
    C173   O298      0.99597      .   S
    C6     O299      0.99973      .   S
    C171   O299      0.99973      .   S
    C6     O300      1.00186  1_545   S
    C172   O300      1.00186      .   S
    C56    O301      0.54912  1_655   S
    C137   O301      0.54912      .   S
    C54    O302      0.54935      .   S
    C135   O302      0.54935      .   S
    C170   O303      0.69638      .   S
    C171   O303      0.69638      .   S
    C170   O304      0.66605      .   S
    C130   O304      0.66605      .   S
    C171   O305      0.66573      .   S
    C134   O305      0.66573      .   S
    C62    O306      0.55244      .   S
    C145   O306      0.55244      .   S
    C173   O307      0.69657      .   S
    C172   O307      0.69657      .   S
    C173   O308      0.66870      .   S
    C144   O308      0.66870      .   S
    C66    O309      0.55218      .   S
    C147   O309      0.55218      .   S
    C172   O310      0.66572      .   S
    C140   O310      0.66572      .   S
    C59    O311      0.55156      .   S
    C138   O311      0.55156      .   S
    C61    O312      0.55172      .   S
    C139   O312      0.55172      .   S
    C137   O313      0.74945      .   S
    C130   O313      0.74945      .   S
    C137   O314      0.76419  1_455   S
    C139   O314      0.76419      .   S
    C137   O315      0.55178      .   S
    C57    O315      0.55178  1_655   S
    C63    O316      0.54939      .   S
    C145   O316      0.54939      .   S
    C130   O317      0.71385      .   S
    C131   O317      0.71385      .   S
    C134   O318      0.74942      .   S
    C135   O318      0.74942      .   S
    C134   O319      0.71347      .   S
    C133   O319      0.71347      .   S
    C135   O320      0.76481      .   S
    C138   O320      0.76481      .   S
    C135   O321      0.55243      .   S
    C53    O321      0.55243      .   S
    C65    O322      0.54919      .   S
    C147   O322      0.54919      .   S
    C145   O323      0.74943      .   S
    C144   O323      0.74943      .   S
    C145   O324      0.76478      .   S
    C148   O324      0.76478      .   S
    C144   O325      0.71301      .   S
    C143   O325      0.71301      .   S
    C139   O326      0.54959      .   S
    C60    O326      0.54959      .   S
    C139   O327      0.76643      .   S
    C136   O327      0.76643  1_455   S
    C140   O328      0.74946      .   S
    C147   O328      0.74946      .   S
    C140   O329      0.71414      .   S
    C141   O329      0.71414      .   S
    C147   O330      0.76410      .   S
    C149   O330      0.76410      .   S
    C138   O331      0.54949      .   S
    C58    O331      0.54949      .   S
    C138   O332      0.76587      .   S
    C116   O332      0.76587      .   S
    C131   O333      0.71546      .   S
    C133   O333      0.71546      .   S
    C131   O334      0.70419      .   S
    C132   O334      0.70419      .   S
    C133   O335      0.70422      .   S
    C112   O335      0.70422      .   S
    C143   O336      0.71547      .   S
    C141   O336      0.71547      .   S
    C143   O337      0.70464      .   S
    C82    O337      0.70464      .   S
    C141   O338      0.70420      .   S
    C142   O338      0.70420      .   S
    C64    O339      0.55447      .   S
    C146   O339      0.55447      .   S
    C43    O340      0.55172      .   S
    C119   O340      0.55172      .   S
    C10    O341      0.55466      .   S
    C86    O341      0.55466      .   S
    C67    O342      0.54950      .   S
    C148   O342      0.54950      .   S
    C41    O343      0.55157      .   S
    C118   O343      0.55157      .   S
    C148   O344      0.76583      .   S
    C86    O344      0.76583      .   S
    C148   O345      0.55162      .   S
    C68    O345      0.55162      .   S
    C69    O346      0.54957      .   S
    C149   O346      0.54957      .   S
    C149   O347      0.76645      .   S
    C146   O347      0.76645      .   S
    C149   O348      0.55175      .   S
    C70    O348      0.55175      .   S
    C132   O349      0.75491      .   S
    C136   O349      0.75491      .   S
    C132   O350      0.70420      .   S
    C113   O350      0.70420      .   S
    C112   O351      0.75492      .   S
    C116   O351      0.75492      .   S
    C112   O352      0.70403      .   S
    C111   O352      0.70403      .   S
    C136   O353      0.76572  1_455   S
    C118   O353      0.76572      .   S
    C136   O354      0.55461      .   S
    C55    O354      0.55461  1_655   S
    C116   O355      0.76646      .   S
    C119   O355      0.76646      .   S
    C116   O356      0.55466      .   S
    C37    O356      0.55466      .   S
    C146   O357      0.75492      .   S
    C142   O357      0.75492      .   S
    C146   O358      0.76605      .   S
    C88    O358      0.76605      .   S
    C86    O359      0.75491      .   S
    C82    O359      0.75491      .   S
    C86    O360      0.76644      .   S
    C89    O360      0.76644      .   S
    C142   O361      0.70397      .   S
    C83    O361      0.70397      .   S
    C82    O362      0.70416      .   S
    C81    O362      0.70416      .   S
    C119   O363      0.54960      .   S
    C42    O363      0.54960      .   S
    C119   O364      0.76431      .   S
    C117   O364      0.76431      .   S
    C118   O365      0.54949      .   S
    C40    O365      0.54949      .   S
    C118   O366      0.76474      .   S
    C115   O366      0.76474  1_455   S
    C111   O367      0.71546      .   S
    C113   O367      0.71546      .   S
    C111   O368      0.71399      .   S
    C110   O368      0.71399      .   S
    C113   O369      0.71348      .   S
    C114   O369      0.71348      .   S
    C83    O370      0.71546      .   S
    C81    O370      0.71546      .   S
    C83    O371      0.71370      .   S
    C84    O371      0.71370      .   S
    C81    O372      0.71387      .   S
    C80    O372      0.71387      .   S
    C8     O373      0.55241      .   S
    C85    O373      0.55241      .   S
    C13    O374      0.54949      .   S
    C88    O374      0.54949      .   S
    C88    O375      0.76483      .   S
    C85    O375      0.76483      .   S
    C88    O376      0.55157      .   S
    C14    O376      0.55157      .   S
    C12    O377      0.55184      .   S
    C87    O377      0.55184      .   S
    C117   O378      0.74944      .   S
    C110   O378      0.74944      .   S
    C117   O379      0.54907      .   S
    C38    O379      0.54907      .   S
    C117   O380      0.55184      .   S
    C39    O380      0.55184      .   S
    C110   O381      0.66605      .   S
    C166   O381      0.66605      .   S
    C15    O382      0.54959      .   S
    C89    O382      0.54959      .   S
    C89    O383      0.76428      .   S
    C87    O383      0.76428      .   S
    C89    O384      0.55177      .   S
    C16    O384      0.55177      .   S
    C114   O385      0.74942      .   S
    C115   O385      0.74942      .   S
    C114   O386      0.66572      .   S
    C167   O386      0.66572      .   S
    C115   O387      0.54932      .   S
    C36    O387      0.54932  1_655   S
    C115   O388      0.55232      .   S
    C35    O388      0.55232  1_655   S
    C85    O389      0.74943      .   S
    C84    O389      0.74943      .   S
    C85    O390      0.54939      .   S
    C9     O390      0.54939      .   S
    C84    O391      0.66576      .   S
    C161   O391      0.66576      .   S
    C80    O392      0.74944      .   S
    C87    O392      0.74944      .   S
    C80    O393      0.66602      .   S
    C160   O393      0.66602      .   S
    C87    O394      0.54918      .   S
    C11    O394      0.54918      .   S
    C166   O395      0.69635      .   S
    C167   O395      0.69635      .   S
    C166   O396      1.00193      .   S
    C3     O396      1.00193      .   S
    C167   O397      0.99961      .   S
    C1     O397      0.99961      .   S
    C161   O398      0.69637      .   S
    C160   O398      0.69637      .   S
    C161   O399      0.99969      .   S
    C3     O399      0.99969      .   S
