# CIF file generated by openbabel 2.4.90, see http://openbabel.sf.net
data_I
_chemical_name_common ''
_cell_length_a 14.826
_cell_length_b 21.759
_cell_length_c 12.748
_cell_angle_alpha 107.622
_cell_angle_beta 89.997
_cell_angle_gamma 90
_space_group_name_H-M_alt 'P 1'
_space_group_name_Hall 'P 1'
loop_
    _symmetry_equiv_pos_as_xyz
    x,y,z
loop_
    _atom_site_label
    _atom_site_type_symbol
    _atom_site_fract_x
    _atom_site_fract_y
    _atom_site_fract_z
    _atom_site_occupancy
    Zr0     Zr   0.00000   0.00000   0.99970   1.000
    Zr1     Zr   0.00000   0.49917   0.00000   1.000
    Zr2     Zr   0.50000   0.99999   0.00021   1.000
    Zr3     Zr   0.50000   0.50080   0.99995   1.000
    N4      N    0.75022   0.75001   0.00008   1.000
    O5      O    0.84974   0.63660   0.98322   1.000
    O6      O    0.65050   0.86309   0.01702   1.000
    O7      O    0.84974   0.86311   0.01681   1.000
    O8      O    0.65051   0.63720   0.98309   1.000
    N9      N    0.25022   0.24995   0.99982   1.000
    O10     O    0.34974   0.36337   0.01672   1.000
    O11     O    0.15051   0.13688   0.98289   1.000
    O12     O    0.15051   0.36276   0.01685   1.000
    O13     O    0.34974   0.13686   0.98311   1.000
    N14     N    0.00000   0.24986   0.49973   1.000
    O15     O    0.00000   0.35484   0.71130   1.000
    O16     O    0.00000   0.14470   0.28828   1.000
    N17     N    0.00000   0.74973   0.49981   1.000
    O18     O    0.00001   0.64430   0.28850   1.000
    O19     O    0.99999   0.85508   0.71118   1.000
    N20     N    0.24978   0.75001   0.00009   1.000
    O21     O    0.34949   0.86309   0.01703   1.000
    O22     O    0.15026   0.86311   0.01681   1.000
    O23     O    0.15026   0.63660   0.98322   1.000
    O24     O    0.34949   0.63720   0.98309   1.000
    N25     N    0.50000   0.75011   0.50021   1.000
    O26     O    0.50000   0.64512   0.28866   1.000
    O27     O    0.50000   0.85527   0.71166   1.000
    N28     N    0.50000   0.25024   0.50008   1.000
    O29     O    0.50000   0.14490   0.28874   1.000
    O30     O    0.49999   0.35567   0.71140   1.000
    N31     N    0.74977   0.24995   0.99987   1.000
    O32     O    0.84949   0.13688   0.98292   1.000
    O33     O    0.65025   0.13686   0.98314   1.000
    O34     O    0.84948   0.36276   0.01686   1.000
    O35     O    0.65025   0.36336   0.01674   1.000
loop_
    _geom_bond_atom_site_label_1
    _geom_bond_atom_site_label_2
    _geom_bond_distance
    _geom_bond_site_symmetry_2
    _ccdc_geom_bond_type
    N4     O5        2.82692  1_554   S
    Zr1    O5        3.78660  1_454   S
    N4     O6        2.82222      .   S
    Zr2    O6        3.77946      .   S
    N4     O7        2.82157      .   S
    Zr0    O7        3.77836  1_446   S
    N4     O8        2.81696  1_554   S
    Zr3    O8        3.77099      .   S
    N9     O10       2.82687  1_556   S
    Zr3    O10       3.78664  1_556   S
    N9     O11       2.82212      .   S
    Zr0    O11       3.77911      .   S
    N9     O12       2.81694  1_556   S
    Zr1    O12       3.77105      .   S
    N9     O13       2.82145      .   S
    Zr2    O13       3.77794  1_564   S
    N14    O15       2.96002      .   S
    Zr1    O15       4.05085  1_554   S
    N14    O16       2.96101      .   S
    Zr0    O16       4.05385  1_556   S
    N17    O18       2.96268      .   S
    Zr1    O18       4.05790      .   S
    N17    O19       2.96226  1_455   S
    Zr0    O19       4.05585  1_445   S
    N20    O21       2.82221      .   S
    Zr2    O21       3.77942      .   S
    N20    O22       2.82156      .   S
    Zr0    O22       3.77831  1_546   S
    N20    O23       2.82689  1_554   S
    Zr1    O23       3.78658  1_554   S
    N20    O24       2.81698  1_554   S
    Zr3    O24       3.77100      .   S
    N25    O26       2.95993      .   S
    Zr3    O26       4.05083  1_556   S
    N25    O27       2.96104      .   S
    Zr2    O27       4.05376  1_554   S
    N28    O29       2.96200      .   S
    Zr2    O29       4.05572  1_565   S
    N28    O30       2.96283      .   S
    Zr3    O30       4.05830      .   S
    N31    O32       2.82208      .   S
    Zr0    O32       3.77907  1_455   S
    N31    O33       2.82141      .   S
    Zr2    O33       3.77788  1_564   S
    N31    O34       2.81703  1_556   S
    Zr1    O34       3.77117  1_455   S
    N31    O35       2.82692  1_556   S
    Zr3    O35       3.78667  1_556   S
