# CIF file generated by openbabel 2.4.90, see http://openbabel.sf.net
data_I
_chemical_name_common ''
_cell_length_a 24.165
_cell_length_b 15.381
_cell_length_c 17.043
_cell_angle_alpha 89.908
_cell_angle_beta 90.006
_cell_angle_gamma 91.729
_space_group_name_H-M_alt 'P 1'
_space_group_name_Hall 'P 1'
loop_
    _symmetry_equiv_pos_as_xyz
    x,y,z
loop_
    _atom_site_label
    _atom_site_type_symbol
    _atom_site_fract_x
    _atom_site_fract_y
    _atom_site_fract_z
    _atom_site_occupancy
    C0      C    0.57075   0.37357   0.71991   1.000
    C1      C    0.48685   0.26101   0.46592   1.000
    C2      C    0.07565   0.36804   0.24520   1.000
    C3      C    0.25327   0.43995   0.80395   1.000
    C4      C    0.75331   0.43994   0.80394   1.000
    C5      C    0.38644   0.21862   0.72380   1.000
    C6      C    0.88639   0.21858   0.72383   1.000
    C7      C    0.42435   0.63193   0.75475   1.000
    C8      C    0.92436   0.63197   0.75474   1.000
    C9      C    0.36900   0.54049   0.02793   1.000
    C10     C    0.86901   0.54048   0.02790   1.000
    C11     C    0.07045   0.37391   0.72002   1.000
    O12     O    0.60413   0.11817   0.45900   1.000
    O13     O    0.12928   0.98235   0.42182   1.000
    O14     O    0.62927   0.98234   0.42179   1.000
    O15     O    0.33354   0.86293   0.70640   1.000
    O16     O    0.83353   0.86292   0.70639   1.000
    O17     O    0.33338   0.94435   0.81411   1.000
    O18     O    0.83337   0.94434   0.81411   1.000
    O19     O    0.28049   0.78216   0.07345   1.000
    C20     C    0.98686   0.26104   0.46593   1.000
    C21     C    0.99670   0.06000   0.30368   1.000
    C22     C    0.49670   0.06000   0.30367   1.000
    C23     C    0.36368   0.28171   0.22370   1.000
    C24     C    0.86368   0.28160   0.22377   1.000
    C25     C    0.32589   0.86665   0.25528   1.000
    C26     C    0.82589   0.86668   0.25523   1.000
    C27     C    0.38101   0.95959   0.52767   1.000
    C28     C    0.88100   0.95957   0.52765   1.000
    C29     C    0.17994   0.12580   0.22078   1.000
    C30     C    0.67992   0.12578   0.22077   1.000
    C31     C    0.26318   0.23866   0.96593   1.000
    C32     C    0.76317   0.23866   0.96592   1.000
    C33     C    0.24669   0.56006   0.19606   1.000
    C34     C    0.74674   0.56005   0.19604   1.000
    C35     C    0.11362   0.78144   0.27617   1.000
    C36     C    0.61357   0.78139   0.27615   1.000
    C37     C    0.57565   0.36808   0.24524   1.000
    C38     C    0.13099   0.45953   0.97209   1.000
    C39     C    0.63101   0.45952   0.97206   1.000
    C40     C    0.42928   0.62638   0.28008   1.000
    C41     C    0.92961   0.62603   0.27996   1.000
    C42     C    0.01314   0.73896   0.53406   1.000
    C43     C    0.51314   0.73898   0.53408   1.000
    C44     C    0.50331   0.94000   0.69633   1.000
    C45     C    0.00000   0.94000   0.69632   1.000
    C46     C    0.13631   0.71838   0.77624   1.000
    C47     C    0.63631   0.71828   0.77622   1.000
    C48     C    0.17411   0.13334   0.74477   1.000
    C49     C    0.67411   0.13336   0.74470   1.000
    C50     C    0.11900   0.04044   0.47235   1.000
    C51     C    0.61899   0.04042   0.47233   1.000
    C52     C    0.32007   0.87422   0.77922   1.000
    C53     C    0.82006   0.87420   0.77921   1.000
    C54     C    0.23683   0.76135   0.03408   1.000
    C55     C    0.73681   0.76135   0.03407   1.000
    O56     O    0.23621   0.35973   0.79986   1.000
    O57     O    0.73622   0.35974   0.79986   1.000
    O58     O    0.36141   0.28828   0.73670   1.000
    O59     O    0.86137   0.28824   0.73670   1.000
    O60     O    0.36379   0.14513   0.74608   1.000
    O61     O    0.86376   0.14509   0.74608   1.000
    O62     O    0.22224   0.50379   0.79350   1.000
    O63     O    0.72230   0.50381   0.79351   1.000
    O64     O    0.39142   0.68266   0.72005   1.000
    O65     O    0.89142   0.68267   0.72003   1.000
    O66     O    0.47700   0.63800   0.75673   1.000
    O67     O    0.97700   0.63810   0.75675   1.000
    O68     O    0.35417   0.61834   0.04027   1.000
    O69     O    0.85418   0.61832   0.04028   1.000
    O70     O    0.37930   0.48272   0.07889   1.000
    O71     O    0.87932   0.48266   0.07882   1.000
    O72     O    0.08352   0.36319   0.79315   1.000
    O73     O    0.58343   0.36314   0.79322   1.000
    O74     O    0.08430   0.44345   0.68437   1.000
    O75     O    0.58517   0.44268   0.68400   1.000
    O76     O    0.03051   0.28187   0.42651   1.000
    O77     O    0.53050   0.28186   0.42648   1.000
    O78     O    0.43962   0.25192   0.43327   1.000
    O79     O    0.93963   0.25192   0.43327   1.000
    O80     O    0.01369   0.14029   0.29970   1.000
    O81     O    0.51369   0.14029   0.29974   1.000
    O82     O    0.38883   0.21210   0.23658   1.000
    O83     O    0.88882   0.21199   0.23657   1.000
    O84     O    0.38620   0.35515   0.24616   1.000
    O85     O    0.88620   0.35504   0.24616   1.000
    O86     O    0.02783   0.99628   0.29339   1.000
    O87     O    0.52782   0.99629   0.29339   1.000
    O88     O    0.35883   0.81709   0.21940   1.000
    O89     O    0.85884   0.81716   0.21932   1.000
    O90     O    0.27333   0.85904   0.25890   1.000
    O91     O    0.77333   0.85903   0.25891   1.000
    O92     O    0.39587   0.88184   0.54050   1.000
    O93     O    0.89586   0.88182   0.54040   1.000
    O94     O    0.37073   0.01766   0.57821   1.000
    O95     O    0.87072   0.01765   0.57819   1.000
    O96     O    0.16647   0.13707   0.29360   1.000
    O97     O    0.66646   0.13706   0.29300   1.000
    O98     O    0.16663   0.05566   0.18589   1.000
    O99     O    0.66663   0.05564   0.18588   1.000
    O100    O    0.21952   0.21785   0.92656   1.000
    O101    O    0.71951   0.21784   0.92655   1.000
    O102    O    0.31038   0.24795   0.93321   1.000
    O103    O    0.81037   0.24795   0.93321   1.000
    O104    O    0.26379   0.64026   0.20013   1.000
    O105    O    0.76380   0.64027   0.20014   1.000
    O106    O    0.13864   0.71177   0.26330   1.000
    O107    O    0.63859   0.71173   0.26328   1.000
    O108    O    0.13625   0.85492   0.25390   1.000
    O109    O    0.63622   0.85487   0.25392   1.000
    O110    O    0.27770   0.49619   0.20649   1.000
    O111    O    0.77777   0.49621   0.20650   1.000
    O112    O    0.10859   0.31735   0.27998   1.000
    O113    O    0.60858   0.31736   0.27995   1.000
    O114    O    0.02300   0.36190   0.24324   1.000
    O115    O    0.52300   0.36201   0.24327   1.000
    O116    O    0.14582   0.38168   0.95972   1.000
    O117    O    0.64583   0.38166   0.95973   1.000
    O118    O    0.12069   0.51734   0.92110   1.000
    O119    O    0.62070   0.51728   0.92109   1.000
    O120    O    0.41656   0.63685   0.20678   1.000
    O121    O    0.91646   0.63680   0.20686   1.000
    O122    O    0.41491   0.55723   0.31596   1.000
    O123    O    0.91589   0.55640   0.31555   1.000
    O124    O    0.46950   0.71814   0.57351   1.000
    O125    O    0.96949   0.71813   0.57348   1.000
    O126    O    0.06037   0.74807   0.56672   1.000
    O127    O    0.56037   0.74808   0.56672   1.000
    O128    O    0.48631   0.85971   0.70026   1.000
    O129    O    0.98632   0.85971   0.70025   1.000
    O130    O    0.11118   0.78800   0.76342   1.000
    O131    O    0.61117   0.78788   0.76341   1.000
    O132    O    0.11380   0.64494   0.75384   1.000
    O133    O    0.61380   0.64483   0.75384   1.000
    O134    O    0.47217   0.00000   0.70661   1.000
    O135    O    0.97217   0.00000   0.70661   1.000
    O136    O    0.14116   0.18288   0.78066   1.000
    O137    O    0.64117   0.18294   0.78059   1.000
    O138    O    0.22667   0.14095   0.74112   1.000
    O139    O    0.72667   0.14095   0.74110   1.000
    O140    O    0.10414   0.11819   0.45951   1.000
    O141    O    0.78048   0.78216   0.07340   1.000
    O142    O    0.18963   0.75205   0.06680   1.000
    O143    O    0.68962   0.75205   0.06600   1.000
loop_
    _geom_bond_atom_site_label_1
    _geom_bond_atom_site_label_2
    _geom_bond_distance
    _geom_bond_site_symmetry_2
    _ccdc_geom_bond_type
    C10    O69       1.27797      .   S
    C10    O71       1.27152      .   S
    C9     O68       1.27800      .   S
    C9     O70       1.27150      .   S
    C55    O143      1.26781      .   S
    C55    O141      1.28266      .   S
    C54    O142      1.27372      .   S
    C54    O19       1.28299      .   S
    O99    C30       1.26563      .   S
    O98    C29       1.26558      .   S
    C34    O105      1.29105      .   S
    C34    O111      1.26573      .   S
    C33    O104      1.29101      .   S
    C33    O110      1.26570      .   S
    O120   C40       1.29739      .   S
    O121   C41       1.29733      .   S
    O89    C26       1.27543      .   S
    O88    C25       1.27548      .   S
    C30    O97       1.28669      .   S
    C29    O96       1.29634      .   S
    C23    O82       1.26579      .   S
    C23    O84       1.29727      .   S
    C24    O83       1.26554      .   S
    C24    O85       1.29689      .   S
    O114   C2        1.27333      .   S
    O115   C37       1.27339      .   S
    C2     O112      1.27619      .   S
    C37    O113      1.27573      .   S
    O108   C35       1.29696      .   S
    O109   C36       1.29697      .   S
    C26    O91       1.27355      .   S
    C25    O90       1.27349      .   S
    O107   C36       1.26555      .   S
    O106   C35       1.26555      .   S
    C41    O123      1.26541      .   S
    C40    O122      1.26545      .   S
    O87    C22       1.26574  1_565   S
    O86    C21       1.26576  1_465   S
    O80    C21       1.29127  1_455   S
    O81    C22       1.29123      .   S
    O14    C51       1.27184  1_565   S
    O13    C50       1.27174  1_565   S
    O77    C1        1.28305      .   S
    O76    C20       1.28279  1_455   S
    O79    C20       1.27371      .   S
    O78    C1        1.27369      .   S
    O12    C51       1.27896      .   S
    O140   C50       1.27751      .   S
    C28    O93       1.27727      .   S
    C28    O95       1.27184  1_565   S
    C27    O92       1.27753      .   S
    C27    O94       1.27180  1_565   S
    C42    O126      1.27372      .   S
    C42    O125      1.28283  1_455   S
    C43    O127      1.27363      .   S
    C43    O124      1.28292      .   S
    O75    C0        1.26548      .   S
    O74    C11       1.26550      .   S
    C45    O129      1.27046  1_455   S
    C45    O135      1.17162  1_465   S
    C44    O128      1.29124      .   S
    C44    O134      1.22103  1_565   S
    O16    C53       1.29637      .   S
    O15    C52       1.29638      .   S
    C0     O73       1.29726      .   S
    C11    O72       1.29723      .   S
    O65    C8        1.27569      .   S
    O64    C7        1.27573      .   S
    C5     O58       1.26564      .   S
    C5     O60       1.29723      .   S
    C6     O59       1.26552      .   S
    C6     O61       1.29688      .   S
    O139   C49       1.27345      .   S
    O138   C48       1.27350      .   S
    C49    O137      1.27573      .   S
    C48    O136      1.27547      .   S
    O133   C47       1.29685      .   S
    O132   C46       1.29687      .   S
    C8     O67       1.27335      .   S
    C7     O66       1.27341      .   S
    O131   C47       1.26558      .   S
    O130   C46       1.26555      .   S
    C53    O18       1.26566      .   S
    C52    O17       1.26560      .   S
    O62    C3        1.26570      .   S
    O63    C4        1.26569      .   S
    O57    C4        1.29101      .   S
    O56    C3        1.29104      .   S
    O119   C39       1.27151      .   S
    O118   C38       1.27224      .   S
    O101   C32       1.28299      .   S
    O100   C31       1.28300      .   S
    O102   C31       1.27370      .   S
    O103   C32       1.27367      .   S
    O116   C38       1.27797      .   S
    O117   C39       1.27802      .   S
