# CIF file generated by openbabel 2.4.90, see http://openbabel.sf.net
data_I
_chemical_name_common ''
_cell_length_a 24.165
_cell_length_b 15.381
_cell_length_c 17.043
_cell_angle_alpha 89.908
_cell_angle_beta 90.006
_cell_angle_gamma 91.729
_space_group_name_H-M_alt 'P 1'
_space_group_name_Hall 'P 1'
loop_
    _symmetry_equiv_pos_as_xyz
    x,y,z
loop_
    _atom_site_label
    _atom_site_type_symbol
    _atom_site_fract_x
    _atom_site_fract_y
    _atom_site_fract_z
    _atom_site_occupancy
    C0      C    0.15646   0.29776   0.85582   1.000
    C1      C    0.65646   0.29779   0.85583   1.000
    C2      C    0.28657   0.22687   0.80502   1.000
    C3      C    0.78655   0.22686   0.80503   1.000
    C4      C    0.37916   0.00000   0.70860   1.000
    C5      C    0.87915   0.00000   0.70860   1.000
    C6      C    0.09342   0.20238   0.35552   1.000
    C7      C    0.59342   0.20238   0.35550   1.000
    C8      C    0.46346   0.27347   0.30518   1.000
    C9      C    0.96344   0.27345   0.30519   1.000
    C10     C    0.37064   0.49246   0.20946   1.000
    C11     C    0.87076   0.49233   0.20936   1.000
    C12     C    0.34355   0.70223   0.14418   1.000
    C13     C    0.84354   0.70226   0.14418   1.000
    C14     C    0.21346   0.77314   0.19497   1.000
    C15     C    0.71344   0.77314   0.19498   1.000
    C16     C    0.12084   0.99195   0.29140   1.000
    C17     C    0.62084   0.99192   0.29138   1.000
    C18     C    0.40658   0.79763   0.64449   1.000
    C19     C    0.90658   0.79763   0.64448   1.000
    C20     C    0.03656   0.72655   0.69481   1.000
    C21     C    0.53655   0.72653   0.69481   1.000
    C22     C    0.12926   0.50765   0.79062   1.000
    C23     C    0.62937   0.50752   0.79050   1.000
    C24     C    0.33677   0.40099   0.82048   1.000
    C25     C    0.83681   0.40095   0.82047   1.000
    C26     C    0.29652   0.43355   0.95018   1.000
    C27     C    0.79656   0.43355   0.95015   1.000
    C28     C    0.28643   0.54321   0.92140   1.000
    C29     C    0.78645   0.54320   0.92141   1.000
    C30     C    0.46210   0.15949   0.69251   1.000
    C31     C    0.96208   0.15950   0.69250   1.000
    C32     C    0.45805   0.35656   0.71685   1.000
    C33     C    0.95788   0.35655   0.71687   1.000
    C34     C    0.48566   0.28106   0.78399   1.000
    C35     C    0.98554   0.28108   0.78400   1.000
    C36     C    0.05790   0.24208   0.69000   1.000
    C37     C    0.55793   0.24181   0.68990   1.000
    C38     C    0.01074   0.38247   0.58241   1.000
    C39     C    0.51088   0.38236   0.58238   1.000
    C40     C    0.06952   0.32120   0.56239   1.000
    C41     C    0.56960   0.32097   0.56232   1.000
    C42     C    0.31341   0.58979   0.77677   1.000
    C43     C    0.81344   0.58973   0.77670   1.000
    C44     C    0.34024   0.51060   0.71365   1.000
    C45     C    0.84030   0.51055   0.71362   1.000
    C46     C    0.42512   0.50158   0.79605   1.000
    C47     C    0.92517   0.50163   0.79605   1.000
    C48     C    0.37463   0.64404   0.89703   1.000
    C49     C    0.87462   0.64406   0.89699   1.000
    C50     C    0.44098   0.59966   0.90850   1.000
    C51     C    0.94097   0.59974   0.90848   1.000
    C52     C    0.39762   0.45450   0.93991   1.000
    C53     C    0.89765   0.45453   0.93987   1.000
    C54     C    0.41055   0.18493   0.56872   1.000
    C55     C    0.91056   0.18490   0.56868   1.000
    C56     C    0.41253   0.29834   0.58606   1.000
    C57     C    0.91247   0.29830   0.58603   1.000
    C58     C    0.01344   0.18495   0.55990   1.000
    C59     C    0.51342   0.18483   0.55980   1.000
    C60     C    0.41304   0.09855   0.31946   1.000
    C61     C    0.91305   0.09854   0.31944   1.000
    C62     C    0.45315   0.06684   0.44949   1.000
    C63     C    0.95314   0.06684   0.44948   1.000
    C64     C    0.46365   0.95714   0.42153   1.000
    C65     C    0.96365   0.95714   0.42153   1.000
    C66     C    0.28795   0.34059   0.19200   1.000
    C67     C    0.78796   0.34054   0.19211   1.000
    C68     C    0.29247   0.14362   0.21738   1.000
    C69     C    0.79245   0.14356   0.21734   1.000
    C70     C    0.26468   0.21912   0.28415   1.000
    C71     C    0.76468   0.21905   0.28413   1.000
    C72     C    0.19221   0.25753   0.18996   1.000
    C73     C    0.69221   0.25752   0.18990   1.000
    C74     C    0.23972   0.11709   0.08306   1.000
    C75     C    0.73969   0.11708   0.08304   1.000
    C76     C    0.18074   0.17791   0.06272   1.000
    C77     C    0.68073   0.17791   0.06271   1.000
    C78     C    0.43688   0.90971   0.27699   1.000
    C79     C    0.93688   0.90969   0.27700   1.000
    C80     C    0.40982   0.98840   0.21336   1.000
    C81     C    0.90985   0.98838   0.21335   1.000
    C82     C    0.32488   0.99714   0.29573   1.000
    C83     C    0.82490   0.99717   0.29570   1.000
    C84     C    0.37585   0.85551   0.39753   1.000
    C85     C    0.87585   0.85550   0.39748   1.000
    C86     C    0.30932   0.89925   0.40866   1.000
    C87     C    0.80932   0.89923   0.40862   1.000
    C88     C    0.35214   0.04499   0.43913   1.000
    C89     C    0.85213   0.04497   0.43910   1.000
    C90     C    0.33943   0.31513   0.06837   1.000
    C91     C    0.83941   0.31512   0.06837   1.000
    C92     C    0.33773   0.20176   0.08623   1.000
    C93     C    0.83771   0.20174   0.08619   1.000
    C94     C    0.23648   0.31454   0.05979   1.000
    C95     C    0.73647   0.31453   0.05970   1.000
    C96     C    0.16320   0.59906   0.17953   1.000
    C97     C    0.66324   0.59902   0.17952   1.000
    C98     C    0.20345   0.56646   0.04984   1.000
    C99     C    0.70348   0.56646   0.04981   1.000
    C100    C    0.21355   0.45681   0.07858   1.000
    C101    C    0.71357   0.45680   0.07852   1.000
    C102    C    0.03793   0.84051   0.30749   1.000
    C103    C    0.53790   0.84051   0.30748   1.000
    C104    C    0.04214   0.64347   0.28312   1.000
    C105    C    0.54197   0.64344   0.28314   1.000
    C106    C    0.01448   0.71893   0.21599   1.000
    C107    C    0.51435   0.71893   0.21600   1.000
    C108    C    0.44206   0.75815   0.31002   1.000
    C109    C    0.94210   0.75789   0.30991   1.000
    C110    C    0.48914   0.61763   0.41762   1.000
    C111    C    0.98928   0.61753   0.41758   1.000
    C112    C    0.43040   0.67900   0.43767   1.000
    C113    C    0.93049   0.67879   0.43758   1.000
    C114    C    0.18656   0.41027   0.22320   1.000
    C115    C    0.68658   0.41022   0.22322   1.000
    C116    C    0.15970   0.48946   0.28638   1.000
    C117    C    0.65976   0.48941   0.28630   1.000
    C118    C    0.07483   0.49839   0.20395   1.000
    C119    C    0.57489   0.49844   0.20395   1.000
    C120    C    0.12537   0.35596   0.10300   1.000
    C121    C    0.62536   0.35598   0.10296   1.000
    C122    C    0.05902   0.40029   0.09152   1.000
    C123    C    0.55902   0.40037   0.09150   1.000
    C124    C    0.10235   0.54548   0.06012   1.000
    C125    C    0.60238   0.54552   0.06007   1.000
    C126    C    0.08943   0.81513   0.43132   1.000
    C127    C    0.58943   0.81509   0.43127   1.000
    C128    C    0.08754   0.70173   0.41397   1.000
    C129    C    0.58748   0.70169   0.41394   1.000
    C130    C    0.48657   0.81516   0.44011   1.000
    C131    C    0.98655   0.81505   0.44005   1.000
    C132    C    0.08696   0.90147   0.68056   1.000
    C133    C    0.58696   0.90146   0.68050   1.000
    C134    C    0.04686   0.93317   0.55052   1.000
    C135    C    0.54684   0.93317   0.55051   1.000
    C136    C    0.03634   0.04287   0.57847   1.000
    C137    C    0.53634   0.04287   0.57848   1.000
    C138    C    0.21204   0.65946   0.80789   1.000
    C139    C    0.71205   0.65941   0.80791   1.000
    C140    C    0.20754   0.85644   0.78267   1.000
    C141    C    0.70752   0.85638   0.78263   1.000
    C142    C    0.23532   0.78096   0.71587   1.000
    C143    C    0.73531   0.78089   0.71585   1.000
    C144    C    0.30778   0.74248   0.81005   1.000
    C145    C    0.80778   0.74247   0.81004   1.000
    C146    C    0.26030   0.88293   0.91696   1.000
    C147    C    0.76027   0.88292   0.91693   1.000
    C148    C    0.31927   0.82211   0.93729   1.000
    C149    C    0.81925   0.82211   0.93727   1.000
    C150    C    0.06311   0.09032   0.72300   1.000
    C151    C    0.56312   0.09030   0.72301   1.000
    C152    C    0.09015   0.00000   0.78665   1.000
    C153    C    0.59018   0.00000   0.78664   1.000
    C154    C    0.17510   0.00000   0.70400   1.000
    C155    C    0.67511   0.00000   0.70420   1.000
    C156    C    0.12414   0.14452   0.60252   1.000
    C157    C    0.62414   0.14451   0.60248   1.000
    C158    C    0.19067   0.10079   0.59138   1.000
    C159    C    0.69067   0.10077   0.59130   1.000
    C160    C    0.14786   0.95505   0.56090   1.000
    C161    C    0.64785   0.95503   0.56088   1.000
    C162    C    0.16058   0.68488   0.93163   1.000
    C163    C    0.66056   0.68487   0.93163   1.000
    C164    C    0.16228   0.79826   0.91381   1.000
    C165    C    0.66227   0.79824   0.91377   1.000
    C166    C    0.26353   0.68548   0.94021   1.000
    C167    C    0.76351   0.68547   0.94021   1.000
    C168    C    0.25327   0.43995   0.80395   1.000
    C169    C    0.75331   0.43994   0.80394   1.000
    C170    C    0.31313   0.46045   0.82668   1.000
    C171    C    0.81317   0.46042   0.82666   1.000
    C172    C    0.31337   0.48732   0.91390   1.000
    C173    C    0.81340   0.48732   0.91392   1.000
    C174    C    0.38644   0.21862   0.72380   1.000
    C175    C    0.88639   0.21858   0.72383   1.000
    C176    C    0.44259   0.22258   0.68385   1.000
    C177    C    0.94254   0.22257   0.68384   1.000
    C178    C    0.47939   0.29448   0.72134   1.000
    C179    C    0.97928   0.29452   0.72135   1.000
    C180    C    0.03589   0.30298   0.67984   1.000
    C181    C    0.53600   0.30280   0.67979   1.000
    C182    C    0.02910   0.31860   0.59171   1.000
    C183    C    0.52919   0.31844   0.59167   1.000
    C184    C    0.33932   0.53234   0.77506   1.000
    C185    C    0.83936   0.53231   0.77502   1.000
    C186    C    0.39791   0.55740   0.80264   1.000
    C187    C    0.89794   0.55742   0.80262   1.000
    C188    C    0.42435   0.63193   0.75475   1.000
    C189    C    0.92436   0.63197   0.75474   1.000
    C190    C    0.39824   0.58445   0.88978   1.000
    C191    C    0.89825   0.58449   0.88975   1.000
    C192    C    0.37230   0.51279   0.94180   1.000
    C193    C    0.87232   0.51281   0.94184   1.000
    C194    C    0.36900   0.54049   0.02793   1.000
    C195    C    0.86901   0.54048   0.02790   1.000
    C196    C    0.43541   0.23829   0.59490   1.000
    C197    C    0.93538   0.23828   0.59497   1.000
    C198    C    0.07045   0.37391   0.72002   1.000
    C199    C    0.57075   0.37357   0.71991   1.000
    C200    C    0.49187   0.24706   0.55419   1.000
    C201    C    0.99185   0.24713   0.55422   1.000
    C202    C    0.48685   0.26101   0.46592   1.000
    C203    C    0.98686   0.26104   0.46593   1.000
    C204    C    0.99670   0.06000   0.30368   1.000
    C205    C    0.49670   0.06000   0.30367   1.000
    C206    C    0.43679   0.03924   0.32613   1.000
    C207    C    0.93680   0.03923   0.32612   1.000
    C208    C    0.43654   0.01277   0.41358   1.000
    C209    C    0.93653   0.01276   0.41357   1.000
    C210    C    0.36368   0.28171   0.22370   1.000
    C211    C    0.86368   0.28160   0.22377   1.000
    C212    C    0.30756   0.27757   0.18370   1.000
    C213    C    0.80756   0.27751   0.18300   1.000
    C214    C    0.27095   0.20555   0.22156   1.000
    C215    C    0.77094   0.20549   0.22154   1.000
    C216    C    0.21434   0.19670   0.18009   1.000
    C217    C    0.71433   0.19668   0.18008   1.000
    C218    C    0.22117   0.18085   0.09203   1.000
    C219    C    0.72116   0.18084   0.09202   1.000
    C220    C    0.41079   0.96694   0.27491   1.000
    C221    C    0.91081   0.96693   0.27490   1.000
    C222    C    0.35225   0.94154   0.30262   1.000
    C223    C    0.85225   0.94154   0.30259   1.000
    C224    C    0.32589   0.86665   0.25528   1.000
    C225    C    0.82589   0.86668   0.25523   1.000
    C226    C    0.35200   0.91482   0.38988   1.000
    C227    C    0.85200   0.91481   0.38985   1.000
    C228    C    0.37765   0.98692   0.44100   1.000
    C229    C    0.87764   0.98690   0.44147   1.000
    C230    C    0.38101   0.95959   0.52767   1.000
    C231    C    0.88100   0.95957   0.52765   1.000
    C232    C    0.31471   0.26170   0.09490   1.000
    C233    C    0.81470   0.26167   0.09488   1.000
    C234    C    0.17994   0.12580   0.22078   1.000
    C235    C    0.67992   0.12578   0.22077   1.000
    C236    C    0.25823   0.25250   0.05421   1.000
    C237    C    0.75822   0.25248   0.05420   1.000
    C238    C    0.26318   0.23866   0.96593   1.000
    C239    C    0.76317   0.23866   0.96592   1.000
    C240    C    0.24669   0.56006   0.19606   1.000
    C241    C    0.74674   0.56005   0.19604   1.000
    C242    C    0.18683   0.53959   0.17334   1.000
    C243    C    0.68688   0.53956   0.17331   1.000
    C244    C    0.18661   0.51269   0.08607   1.000
    C245    C    0.68664   0.51269   0.08600   1.000
    C246    C    0.11362   0.78144   0.27617   1.000
    C247    C    0.61357   0.78139   0.27615   1.000
    C248    C    0.05747   0.77745   0.31616   1.000
    C249    C    0.55741   0.77743   0.31614   1.000
    C250    C    0.02074   0.70549   0.27864   1.000
    C251    C    0.52062   0.70551   0.27860   1.000
    C252    C    0.46401   0.69717   0.32020   1.000
    C253    C    0.96413   0.69701   0.32014   1.000
    C254    C    0.47082   0.68154   0.40832   1.000
    C255    C    0.97092   0.68140   0.40827   1.000
    C256    C    0.16064   0.46770   0.22497   1.000
    C257    C    0.66069   0.46767   0.22493   1.000
    C258    C    0.10206   0.44260   0.19737   1.000
    C259    C    0.60209   0.44262   0.19735   1.000
    C260    C    0.07565   0.36804   0.24520   1.000
    C261    C    0.57565   0.36808   0.24524   1.000
    C262    C    0.10175   0.41553   0.11024   1.000
    C263    C    0.60175   0.41557   0.11021   1.000
    C264    C    0.12768   0.48720   0.05815   1.000
    C265    C    0.62770   0.48723   0.05812   1.000
    C266    C    0.13099   0.45953   0.97209   1.000
    C267    C    0.63101   0.45952   0.97206   1.000
    C268    C    0.06462   0.76174   0.40503   1.000
    C269    C    0.56458   0.76173   0.40501   1.000
    C270    C    0.42928   0.62638   0.28008   1.000
    C271    C    0.92961   0.62603   0.27996   1.000
    C272    C    0.00815   0.75287   0.44577   1.000
    C273    C    0.50813   0.75293   0.44580   1.000
    C274    C    0.01314   0.73896   0.53406   1.000
    C275    C    0.51314   0.73898   0.53408   1.000
    C276    C    0.50331   0.94000   0.69633   1.000
    C277    C    0.00000   0.94000   0.69632   1.000
    C278    C    0.06320   0.96078   0.67388   1.000
    C279    C    0.56321   0.96077   0.67387   1.000
    C280    C    0.06347   0.98725   0.58643   1.000
    C281    C    0.56346   0.98724   0.58642   1.000
    C282    C    0.13631   0.71838   0.77624   1.000
    C283    C    0.63631   0.71828   0.77622   1.000
    C284    C    0.19243   0.72248   0.81631   1.000
    C285    C    0.69243   0.72243   0.81630   1.000
    C286    C    0.22906   0.79451   0.77846   1.000
    C287    C    0.72904   0.79446   0.77844   1.000
    C288    C    0.28566   0.80332   0.81992   1.000
    C289    C    0.78565   0.80330   0.81991   1.000
    C290    C    0.27884   0.81917   0.90798   1.000
    C291    C    0.77882   0.81916   0.90797   1.000
    C292    C    0.08919   0.03308   0.72510   1.000
    C293    C    0.58920   0.03307   0.72509   1.000
    C294    C    0.14774   0.05847   0.69741   1.000
    C295    C    0.64775   0.05848   0.69738   1.000
    C296    C    0.17411   0.13334   0.74477   1.000
    C297    C    0.67411   0.13336   0.74470   1.000
    C298    C    0.14799   0.08520   0.61015   1.000
    C299    C    0.64799   0.08519   0.61012   1.000
    C300    C    0.12235   0.01311   0.55853   1.000
    C301    C    0.62235   0.01310   0.55851   1.000
    C302    C    0.11900   0.04044   0.47235   1.000
    C303    C    0.61899   0.04042   0.47233   1.000
    C304    C    0.18530   0.73833   0.90512   1.000
    C305    C    0.68528   0.73831   0.90510   1.000
    C306    C    0.32007   0.87422   0.77922   1.000
    C307    C    0.82006   0.87420   0.77921   1.000
    C308    C    0.24178   0.74752   0.94580   1.000
    C309    C    0.74176   0.74751   0.94570   1.000
    C310    C    0.23683   0.76135   0.03408   1.000
    C311    C    0.73681   0.76135   0.03407   1.000
    C312    C    0.23621   0.35973   0.79986   1.000
    C313    C    0.73622   0.35974   0.79986   1.000
    C314    C    0.36141   0.28828   0.73670   1.000
    C315    C    0.86137   0.28824   0.73670   1.000
    C316    C    0.36379   0.14513   0.74608   1.000
    C317    C    0.86376   0.14509   0.74608   1.000
    C318    C    0.22224   0.50379   0.79350   1.000
    C319    C    0.72230   0.50381   0.79351   1.000
    C320    C    0.39142   0.68266   0.72005   1.000
    C321    C    0.89142   0.68267   0.72003   1.000
    C322    C    0.47700   0.63800   0.75673   1.000
    C323    C    0.97700   0.63810   0.75675   1.000
    C324    C    0.35417   0.61834   0.04027   1.000
    C325    C    0.85418   0.61832   0.04028   1.000
    C326    C    0.37930   0.48272   0.07889   1.000
    C327    C    0.87932   0.48266   0.07882   1.000
    C328    C    0.08352   0.36319   0.79315   1.000
    C329    C    0.58343   0.36314   0.79322   1.000
    C330    C    0.08430   0.44345   0.68437   1.000
    C331    C    0.58517   0.44268   0.68400   1.000
    C332    C    0.03051   0.28187   0.42651   1.000
    C333    C    0.53050   0.28186   0.42648   1.000
    C334    C    0.43962   0.25192   0.43327   1.000
    C335    C    0.93963   0.25192   0.43327   1.000
    C336    C    0.01369   0.14029   0.29970   1.000
    C337    C    0.51369   0.14029   0.29974   1.000
    C338    C    0.38883   0.21210   0.23658   1.000
    C339    C    0.88882   0.21199   0.23657   1.000
    C340    C    0.38620   0.35515   0.24616   1.000
    C341    C    0.88620   0.35504   0.24616   1.000
    C342    C    0.02783   0.99628   0.29339   1.000
    C343    C    0.52782   0.99629   0.29339   1.000
    C344    C    0.35883   0.81709   0.21940   1.000
    C345    C    0.85884   0.81716   0.21932   1.000
    C346    C    0.27333   0.85904   0.25890   1.000
    C347    C    0.77333   0.85903   0.25891   1.000
    C348    C    0.39587   0.88184   0.54050   1.000
    C349    C    0.89586   0.88182   0.54040   1.000
    C350    C    0.37073   0.01766   0.57821   1.000
    C351    C    0.87072   0.01765   0.57819   1.000
    C352    C    0.16647   0.13707   0.29360   1.000
    C353    C    0.66646   0.13706   0.29300   1.000
    C354    C    0.16663   0.05566   0.18589   1.000
    C355    C    0.66663   0.05564   0.18588   1.000
    C356    C    0.21952   0.21785   0.92656   1.000
    C357    C    0.71951   0.21784   0.92655   1.000
    C358    C    0.31038   0.24795   0.93321   1.000
    C359    C    0.81037   0.24795   0.93321   1.000
    C360    C    0.26379   0.64026   0.20013   1.000
    C361    C    0.76380   0.64027   0.20014   1.000
    C362    C    0.13864   0.71177   0.26330   1.000
    C363    C    0.63859   0.71173   0.26328   1.000
    C364    C    0.13625   0.85492   0.25390   1.000
    C365    C    0.63622   0.85487   0.25392   1.000
    C366    C    0.27770   0.49619   0.20649   1.000
    C367    C    0.77777   0.49621   0.20650   1.000
    C368    C    0.10859   0.31735   0.27998   1.000
    C369    C    0.60858   0.31736   0.27995   1.000
    C370    C    0.02300   0.36190   0.24324   1.000
    C371    C    0.52300   0.36201   0.24327   1.000
    C372    C    0.14582   0.38168   0.95972   1.000
    C373    C    0.64583   0.38166   0.95973   1.000
    C374    C    0.12069   0.51734   0.92110   1.000
    C375    C    0.62070   0.51728   0.92109   1.000
    C376    C    0.41656   0.63685   0.20678   1.000
    C377    C    0.91646   0.63680   0.20686   1.000
    C378    C    0.41491   0.55723   0.31596   1.000
    C379    C    0.91589   0.55640   0.31555   1.000
    C380    C    0.46950   0.71814   0.57351   1.000
    C381    C    0.96949   0.71813   0.57348   1.000
    C382    C    0.06037   0.74807   0.56672   1.000
    C383    C    0.56037   0.74808   0.56672   1.000
    C384    C    0.48631   0.85971   0.70026   1.000
    C385    C    0.98632   0.85971   0.70025   1.000
    C386    C    0.11118   0.78800   0.76342   1.000
    C387    C    0.61117   0.78788   0.76341   1.000
    C388    C    0.11380   0.64494   0.75384   1.000
    C389    C    0.61380   0.64483   0.75384   1.000
    C390    C    0.47217   0.00000   0.70661   1.000
    C391    C    0.97217   0.00000   0.70661   1.000
    C392    C    0.14116   0.18288   0.78066   1.000
    C393    C    0.64117   0.18294   0.78059   1.000
    C394    C    0.22667   0.14095   0.74112   1.000
    C395    C    0.72667   0.14095   0.74110   1.000
    C396    C    0.10414   0.11819   0.45951   1.000
    C397    C    0.60413   0.11817   0.45900   1.000
    C398    C    0.12928   0.98235   0.42182   1.000
    C399    C    0.62927   0.98234   0.42179   1.000
    C400    C    0.33354   0.86293   0.70640   1.000
    C401    C    0.83353   0.86292   0.70639   1.000
    C402    C    0.33338   0.94435   0.81411   1.000
    C403    C    0.83337   0.94434   0.81411   1.000
    C404    C    0.28049   0.78216   0.07345   1.000
    C405    C    0.78048   0.78216   0.07340   1.000
    C406    C    0.18963   0.75205   0.06680   1.000
    C407    C    0.68962   0.75205   0.06600   1.000
    O408    O    0.86159   0.57940   0.03409   1.000
    O409    O    0.87416   0.51157   0.05336   1.000
    O410    O    0.87067   0.52665   0.98487   1.000
    O411    O    0.36158   0.57941   0.03410   1.000
    O412    O    0.37415   0.51160   0.05341   1.000
    O413    O    0.37065   0.52664   0.98487   1.000
    O414    O    0.71322   0.75670   0.05004   1.000
    O415    O    0.75865   0.77175   0.05374   1.000
    O416    O    0.73929   0.75443   0.98989   1.000
    O417    O    0.21323   0.75670   0.05044   1.000
    O418    O    0.25866   0.77176   0.05377   1.000
    O419    O    0.23930   0.75444   0.98994   1.000
    O420    O    0.34886   0.66028   0.09223   1.000
    O421    O    0.84886   0.66029   0.09223   1.000
    O422    O    0.69506   0.53958   0.06791   1.000
    O423    O    0.19503   0.53958   0.06796   1.000
    O424    O    0.74734   0.28351   0.05695   1.000
    O425    O    0.73969   0.21666   0.07311   1.000
    O426    O    0.78646   0.25708   0.07454   1.000
    O427    O    0.76069   0.24557   0.01006   1.000
    O428    O    0.24736   0.28352   0.05700   1.000
    O429    O    0.23970   0.21667   0.07312   1.000
    O430    O    0.28647   0.25710   0.07456   1.000
    O431    O    0.26071   0.24558   0.01007   1.000
    O432    O    0.61504   0.51637   0.05910   1.000
    O433    O    0.65717   0.49996   0.07206   1.000
    O434    O    0.61473   0.45140   0.08417   1.000
    O435    O    0.62935   0.47337   0.01509   1.000
    O436    O    0.11501   0.51634   0.05914   1.000
    O437    O    0.15714   0.49995   0.07211   1.000
    O438    O    0.11471   0.45137   0.08420   1.000
    O439    O    0.12933   0.47337   0.01512   1.000
    O440    O    0.70094   0.17938   0.07737   1.000
    O441    O    0.20096   0.17938   0.07738   1.000
    O442    O    0.70153   0.76259   0.13049   1.000
    O443    O    0.20155   0.76259   0.13089   1.000
    O444    O    0.32707   0.28841   0.08164   1.000
    O445    O    0.82706   0.28840   0.08163   1.000
    O446    O    0.81201   0.74221   0.10879   1.000
    O447    O    0.31202   0.74219   0.10882   1.000
    O448    O    0.70010   0.48475   0.08226   1.000
    O449    O    0.20008   0.48475   0.08233   1.000
    O450    O    0.87504   0.48750   0.14409   1.000
    O451    O    0.37497   0.48759   0.14418   1.000
    O452    O    0.73042   0.14896   0.08753   1.000
    O453    O    0.23044   0.14897   0.08755   1.000
    O454    O    0.68676   0.52612   0.12966   1.000
    O455    O    0.18672   0.52614   0.12971   1.000
    O456    O    0.82620   0.23171   0.09054   1.000
    O457    O    0.32622   0.23173   0.09057   1.000
    O458    O    0.58038   0.40797   0.10086   1.000
    O459    O    0.08038   0.40791   0.10088   1.000
    O460    O    0.71774   0.18876   0.13605   1.000
    O461    O    0.21776   0.18878   0.13606   1.000
    O462    O    0.81113   0.26959   0.13894   1.000
    O463    O    0.31114   0.26963   0.13930   1.000
    O464    O    0.61355   0.38577   0.10659   1.000
    O465    O    0.11356   0.38574   0.10662   1.000
    O466    O    0.60192   0.42910   0.15378   1.000
    O467    O    0.10191   0.42907   0.15381   1.000
    O468    O    0.80367   0.67126   0.17216   1.000
    O469    O    0.88000   0.66953   0.17552   1.000
    O470    O    0.85119   0.75971   0.18175   1.000
    O471    O    0.30367   0.67124   0.17216   1.000
    O472    O    0.38005   0.66954   0.17548   1.000
    O473    O    0.35119   0.75966   0.18179   1.000
    O474    O    0.67506   0.56929   0.17642   1.000
    O475    O    0.71681   0.54980   0.18468   1.000
    O476    O    0.67378   0.50361   0.19912   1.000
    O477    O    0.17501   0.56932   0.17644   1.000
    O478    O    0.21676   0.54982   0.18470   1.000
    O479    O    0.17374   0.50364   0.19916   1.000
    O480    O    0.70327   0.22710   0.18499   1.000
    O481    O    0.69712   0.16123   0.20043   1.000
    O482    O    0.74263   0.20109   0.20081   1.000
    O483    O    0.20328   0.22712   0.18503   1.000
    O484    O    0.19714   0.16125   0.20044   1.000
    O485    O    0.24265   0.20112   0.20083   1.000
    O486    O    0.79776   0.30903   0.18756   1.000
    O487    O    0.78925   0.24150   0.20227   1.000
    O488    O    0.83562   0.27956   0.20339   1.000
    O489    O    0.29776   0.30908   0.18785   1.000
    O490    O    0.28926   0.24156   0.20263   1.000
    O491    O    0.33562   0.27964   0.20370   1.000
    O492    O    0.67327   0.09071   0.20333   1.000
    O493    O    0.64373   0.02378   0.23863   1.000
    O494    O    0.17329   0.09073   0.20334   1.000
    O495    O    0.14374   0.02381   0.23865   1.000
    O496    O    0.24340   0.81609   0.22694   1.000
    O497    O    0.17605   0.74246   0.22914   1.000
    O498    O    0.74338   0.81608   0.22695   1.000
    O499    O    0.67601   0.74243   0.22913   1.000
    O500    O    0.75527   0.60016   0.19809   1.000
    O501    O    0.76226   0.52813   0.20127   1.000
    O502    O    0.25524   0.60016   0.19810   1.000
    O503    O    0.26220   0.52812   0.20128   1.000
    O504    O    0.58849   0.47053   0.20065   1.000
    O505    O    0.63139   0.45514   0.21114   1.000
    O506    O    0.58887   0.40535   0.22130   1.000
    O507    O    0.08845   0.47049   0.20066   1.000
    O508    O    0.13135   0.45515   0.21117   1.000
    O509    O    0.08885   0.40532   0.22129   1.000
    O510    O    0.32417   0.49432   0.20798   1.000
    O511    O    0.82427   0.49427   0.20793   1.000
    O512    O    0.42292   0.63161   0.24343   1.000
    O513    O    0.92304   0.63142   0.24341   1.000
    O514    O    0.87848   0.42369   0.22776   1.000
    O515    O    0.89333   0.52437   0.26246   1.000
    O516    O    0.37842   0.42381   0.22781   1.000
    O517    O    0.39277   0.52485   0.26271   1.000
    O518    O    0.91033   0.97765   0.24413   1.000
    O519    O    0.41031   0.97767   0.24414   1.000
    O520    O    0.01761   0.71221   0.24732   1.000
    O521    O    0.51748   0.71222   0.24730   1.000
    O522    O    0.78169   0.17453   0.21944   1.000
    O523    O    0.28171   0.17458   0.21947   1.000
    O524    O    0.84237   0.84192   0.23728   1.000
    O525    O    0.34236   0.84187   0.23734   1.000
    O526    O    0.67319   0.13142   0.25689   1.000
    O527    O    0.17320   0.13143   0.25719   1.000
    O528    O    0.76781   0.21227   0.25284   1.000
    O529    O    0.26781   0.21233   0.25286   1.000
    O530    O    0.17360   0.43899   0.22409   1.000
    O531    O    0.67363   0.43894   0.22408   1.000
    O532    O    0.37626   0.24691   0.23014   1.000
    O533    O    0.37494   0.31843   0.23493   1.000
    O534    O    0.87625   0.24680   0.23017   1.000
    O535    O    0.87494   0.31832   0.23497   1.000
    O536    O    0.66022   0.47854   0.25562   1.000
    O537    O    0.16017   0.47858   0.25568   1.000
    O538    O    0.92613   0.24272   0.27088   1.000
    O539    O    0.42614   0.24279   0.27088   1.000
    O540    O    0.04932   0.36497   0.24422   1.000
    O541    O    0.99322   0.31768   0.27422   1.000
    O542    O    0.54933   0.36504   0.24426   1.000
    O543    O    0.49323   0.31774   0.27423   1.000
    O544    O    0.09212   0.34270   0.26259   1.000
    O545    O    0.59212   0.34272   0.26260   1.000
    O546    O    0.12494   0.81818   0.26504   1.000
    O547    O    0.12855   0.92344   0.27265   1.000
    O548    O    0.62489   0.81813   0.26504   1.000
    O549    O    0.62853   0.92340   0.27265   1.000
    O550    O    0.79961   0.86286   0.25707   1.000
    O551    O    0.83907   0.90411   0.27891   1.000
    O552    O    0.29961   0.86284   0.25709   1.000
    O553    O    0.33907   0.90409   0.27895   1.000
    O554    O    0.62608   0.74656   0.26972   1.000
    O555    O    0.12613   0.74661   0.26974   1.000
    O556    O    0.92384   0.93831   0.27595   1.000
    O557    O    0.88153   0.95424   0.28875   1.000
    O558    O    0.92380   0.00308   0.30051   1.000
    O559    O    0.42384   0.93833   0.27595   1.000
    O560    O    0.38152   0.95424   0.28877   1.000
    O561    O    0.42379   0.00309   0.30052   1.000
    O562    O    0.58549   0.77941   0.29615   1.000
    O563    O    0.08554   0.77944   0.29617   1.000
    O564    O    0.53129   0.67448   0.28087   1.000
    O565    O    0.53901   0.74147   0.29737   1.000
    O566    O    0.49231   0.70134   0.29940   1.000
    O567    O    0.03144   0.67448   0.28088   1.000
    O568    O    0.03911   0.74147   0.29740   1.000
    O569    O    0.99244   0.70125   0.29939   1.000
    O570    O    0.60100   0.25987   0.31773   1.000
    O571    O    0.92275   0.59122   0.29776   1.000
    O572    O    0.94687   0.66152   0.30005   1.000
    O573    O    0.10100   0.25987   0.31775   1.000
    O574    O    0.42209   0.59181   0.29802   1.000
    O575    O    0.44664   0.66178   0.30014   1.000
    O576    O    0.57433   0.99410   0.29239   1.000
    O577    O    0.62505   0.98713   0.35659   1.000
    O578    O    0.07434   0.99412   0.29240   1.000
    O579    O    0.12506   0.98715   0.35661   1.000
    O580    O    0.62994   0.16972   0.32425   1.000
    O581    O    0.51226   0.02815   0.29853   1.000
    O582    O    0.01226   0.02814   0.29854   1.000
    O583    O    0.12994   0.16973   0.32456   1.000
    O584    O    0.83857   0.96936   0.29915   1.000
    O585    O    0.33856   0.96934   0.29918   1.000
    O586    O    0.00519   0.10014   0.30169   1.000
    O587    O    0.05355   0.17133   0.32761   1.000
    O588    O    0.50519   0.10015   0.30171   1.000
    O589    O    0.55356   0.17134   0.32762   1.000
    O590    O    0.85213   0.92818   0.34622   1.000
    O591    O    0.35213   0.92818   0.34625   1.000
    O592    O    0.46674   0.04962   0.31490   1.000
    O593    O    0.96675   0.04961   0.31490   1.000
    O594    O    0.45154   0.26269   0.36923   1.000
    O595    O    0.95154   0.26269   0.36923   1.000
    O596    O    0.54765   0.80897   0.31181   1.000
    O597    O    0.04770   0.80898   0.31183   1.000
    O598    O    0.95311   0.72745   0.31503   1.000
    O599    O    0.45304   0.72766   0.31511   1.000
    O600    O    0.56100   0.76958   0.36058   1.000
    O601    O    0.06104   0.76960   0.36060   1.000
    O602    O    0.92492   0.06888   0.32278   1.000
    O603    O    0.42492   0.06890   0.32280   1.000
    O604    O    0.96752   0.68920   0.36421   1.000
    O605    O    0.46741   0.68936   0.36426   1.000
    O606    O    0.93666   0.02599   0.36985   1.000
    O607    O    0.43666   0.02600   0.36986   1.000
    O608    O    0.56196   0.24212   0.39099   1.000
    O609    O    0.59878   0.16028   0.40725   1.000
    O610    O    0.06196   0.24212   0.39102   1.000
    O611    O    0.09878   0.16028   0.40752   1.000
    O612    O    0.86393   0.88515   0.39367   1.000
    O613    O    0.83066   0.90702   0.39924   1.000
    O614    O    0.86482   0.95086   0.41566   1.000
    O615    O    0.36393   0.88517   0.39371   1.000
    O616    O    0.33066   0.90704   0.39927   1.000
    O617    O    0.36483   0.95087   0.41544   1.000
    O618    O    0.57603   0.73171   0.40948   1.000
    O619    O    0.57701   0.78841   0.41814   1.000
    O620    O    0.53636   0.75733   0.42541   1.000
    O621    O    0.07608   0.73173   0.40950   1.000
    O622    O    0.07703   0.78844   0.41818   1.000
    O623    O    0.03638   0.75731   0.42540   1.000
    O624    O    0.98010   0.64946   0.41293   1.000
    O625    O    0.95070   0.68009   0.42293   1.000
    O626    O    0.98953   0.71713   0.42702   1.000
    O627    O    0.47998   0.64959   0.41297   1.000
    O628    O    0.45061   0.68027   0.42300   1.000
    O629    O    0.48947   0.71724   0.42706   1.000
    O630    O    0.95009   0.98495   0.41755   1.000
    O631    O    0.90709   0.99983   0.42752   1.000
    O632    O    0.94483   0.03980   0.43153   1.000
    O633    O    0.45009   0.98496   0.41756   1.000
    O634    O    0.40709   0.99984   0.42729   1.000
    O635    O    0.44484   0.03980   0.43154   1.000
    O636    O    0.62413   0.01138   0.44706   1.000
    O637    O    0.12414   0.01139   0.44709   1.000
    O638    O    0.50868   0.27143   0.44620   1.000
    O639    O    0.00868   0.27145   0.44622   1.000
    O640    O    0.96325   0.25648   0.44960   1.000
    O641    O    0.46324   0.25646   0.44960   1.000
    O642    O    0.86489   0.01593   0.44029   1.000
    O643    O    0.36490   0.01595   0.44007   1.000
    O644    O    0.99735   0.78396   0.44291   1.000
    O645    O    0.49735   0.78404   0.44296   1.000
    O646    O    0.37933   0.97325   0.48434   1.000
    O647    O    0.87932   0.97323   0.48456   1.000
    O648    O    0.01064   0.74591   0.48992   1.000
    O649    O    0.51064   0.74596   0.48994   1.000
    O650    O    0.61156   0.07930   0.46567   1.000
    O651    O    0.11157   0.07931   0.46593   1.000
    O652    O    0.48936   0.25404   0.51006   1.000
    O653    O    0.98935   0.25409   0.51008   1.000
    O654    O    0.62067   0.02676   0.51542   1.000
    O655    O    0.12068   0.02677   0.51544   1.000
    O656    O    0.88843   0.92070   0.53403   1.000
    O657    O    0.87586   0.98861   0.55292   1.000
    O658    O    0.38844   0.92071   0.53409   1.000
    O659    O    0.37587   0.98863   0.55294   1.000
    O660    O    0.03675   0.74351   0.55039   1.000
    O661    O    0.99131   0.72854   0.55377   1.000
    O662    O    0.53676   0.74353   0.55040   1.000
    O663    O    0.49132   0.72856   0.55380   1.000
    O664    O    0.90122   0.83973   0.59244   1.000
    O665    O    0.40122   0.83973   0.59250   1.000
    O666    O    0.55515   0.96021   0.56847   1.000
    O667    O    0.05516   0.96021   0.56848   1.000
    O668    O    0.50264   0.21595   0.55700   1.000
    O669    O    0.51053   0.28275   0.57293   1.000
    O670    O    0.46364   0.24267   0.57455   1.000
    O671    O    0.00265   0.21604   0.55706   1.000
    O672    O    0.01047   0.28287   0.57297   1.000
    O673    O    0.96362   0.24271   0.57460   1.000
    O674    O    0.63510   0.98406   0.55970   1.000
    O675    O    0.59290   0.00017   0.57247   1.000
    O676    O    0.63517   0.04914   0.58432   1.000
    O677    O    0.13511   0.98408   0.55972   1.000
    O678    O    0.09291   0.00018   0.57248   1.000
    O679    O    0.13517   0.04916   0.58434   1.000
    O680    O    0.54940   0.31971   0.57700   1.000
    O681    O    0.04931   0.31990   0.57705   1.000
    O682    O    0.04846   0.73731   0.63077   1.000
    O683    O    0.54846   0.73730   0.63077   1.000
    O684    O    0.92297   0.21159   0.58183   1.000
    O685    O    0.42298   0.21161   0.58181   1.000
    O686    O    0.93804   0.75788   0.60898   1.000
    O687    O    0.43804   0.75788   0.60900   1.000
    O688    O    0.87494   0.00883   0.64340   1.000
    O689    O    0.37494   0.00883   0.64341   1.000
    O690    O    0.04990   0.01506   0.58245   1.000
    O691    O    0.54990   0.01506   0.58245   1.000
    O692    O    0.52004   0.35040   0.58703   1.000
    O693    O    0.01992   0.35053   0.58706   1.000
    O694    O    0.92393   0.26829   0.59050   1.000
    O695    O    0.42397   0.26831   0.59048   1.000
    O696    O    0.56333   0.97401   0.63015   1.000
    O697    O    0.06333   0.97402   0.63016   1.000
    O698    O    0.66933   0.09298   0.60071   1.000
    O699    O    0.16933   0.09299   0.60077   1.000
    O700    O    0.53260   0.31062   0.63573   1.000
    O701    O    0.03249   0.31079   0.63578   1.000
    O702    O    0.43900   0.23043   0.63938   1.000
    O703    O    0.93896   0.23042   0.63941   1.000
    O704    O    0.63607   0.11485   0.60630   1.000
    O705    O    0.13607   0.11486   0.60633   1.000
    O706    O    0.64787   0.07184   0.65375   1.000
    O707    O    0.14787   0.07184   0.65378   1.000
    O708    O    0.94645   0.82867   0.67237   1.000
    O709    O    0.87006   0.83028   0.67544   1.000
    O710    O    0.89900   0.74015   0.68226   1.000
    O711    O    0.44645   0.82867   0.67238   1.000
    O712    O    0.37006   0.83028   0.67545   1.000
    O713    O    0.39900   0.74014   0.68227   1.000
    O714    O    0.57508   0.93111   0.67719   1.000
    O715    O    0.53326   0.95038   0.68510   1.000
    O716    O    0.57620   0.99692   0.69948   1.000
    O717    O    0.07508   0.93113   0.67722   1.000
    O718    O    0.03160   0.95039   0.68510   1.000
    O719    O    0.07620   0.99693   0.69949   1.000
    O720    O    0.54697   0.27230   0.68485   1.000
    O721    O    0.55338   0.33818   0.69985   1.000
    O722    O    0.50770   0.29864   0.70057   1.000
    O723    O    0.04689   0.27253   0.68492   1.000
    O724    O    0.05317   0.33845   0.69993   1.000
    O725    O    0.00758   0.29875   0.70060   1.000
    O726    O    0.95231   0.19103   0.68817   1.000
    O727    O    0.96091   0.25854   0.70260   1.000
    O728    O    0.91447   0.22057   0.70384   1.000
    O729    O    0.45235   0.19103   0.68818   1.000
    O730    O    0.46099   0.25853   0.70260   1.000
    O731    O    0.41451   0.22060   0.70383   1.000
    O732    O    0.57796   0.40812   0.70196   1.000
    O733    O    0.60727   0.47510   0.73725   1.000
    O734    O    0.07737   0.40868   0.70220   1.000
    O735    O    0.10678   0.47555   0.73750   1.000
    O736    O    0.50677   0.68226   0.72577   1.000
    O737    O    0.57386   0.75721   0.72911   1.000
    O738    O    0.00678   0.68232   0.72578   1.000
    O739    O    0.07387   0.75727   0.72912   1.000
    O740    O    0.99316   0.89986   0.69829   1.000
    O741    O    0.98608   0.97000   0.70147   1.000
    O742    O    0.49481   0.89985   0.69830   1.000
    O743    O    0.48774   0.97000   0.70147   1.000
    O744    O    0.66143   0.02924   0.70079   1.000
    O745    O    0.61847   0.04578   0.71124   1.000
    O746    O    0.66093   0.09592   0.72104   1.000
    O747    O    0.16142   0.02924   0.70071   1.000
    O748    O    0.11847   0.04578   0.71126   1.000
    O749    O    0.16092   0.09590   0.72109   1.000
    O750    O    0.82680   0.86856   0.74280   1.000
    O751    O    0.32681   0.86857   0.74281   1.000
    O752    O    0.42567   0.00000   0.70761   1.000
    O753    O    0.92566   0.00000   0.70761   1.000
    O754    O    0.87146   0.07255   0.72734   1.000
    O755    O    0.85626   0.97217   0.76136   1.000
    O756    O    0.37147   0.07257   0.72734   1.000
    O757    O    0.35627   0.97218   0.76136   1.000
    O758    O    0.83983   0.52143   0.74432   1.000
    O759    O    0.33978   0.52147   0.74436   1.000
    O760    O    0.73218   0.78767   0.74715   1.000
    O761    O    0.23219   0.78773   0.74717   1.000
    O762    O    0.46872   0.32552   0.71910   1.000
    O763    O    0.96858   0.32554   0.71911   1.000
    O764    O    0.57709   0.36835   0.75657   1.000
    O765    O    0.07698   0.36855   0.75659   1.000
    O766    O    0.90789   0.65732   0.73739   1.000
    O767    O    0.40789   0.65730   0.73740   1.000
    O768    O    0.48253   0.28777   0.75267   1.000
    O769    O    0.98241   0.28780   0.75268   1.000
    O770    O    0.07615   0.06170   0.72405   1.000
    O771    O    0.57616   0.06169   0.72405   1.000
    O772    O    0.37393   0.25345   0.73025   1.000
    O773    O    0.37511   0.18188   0.73494   1.000
    O774    O    0.87388   0.25341   0.73027   1.000
    O775    O    0.87507   0.18183   0.73496   1.000
    O776    O    0.58969   0.01654   0.75587   1.000
    O777    O    0.08967   0.01654   0.75588   1.000
    O778    O    0.32399   0.25757   0.77086   1.000
    O779    O    0.82396   0.25755   0.77087   1.000
    O780    O    0.70039   0.13715   0.74290   1.000
    O781    O    0.75661   0.18390   0.77307   1.000
    O782    O    0.20039   0.13714   0.74295   1.000
    O783    O    0.25662   0.18391   0.77307   1.000
    O784    O    0.65764   0.15815   0.76265   1.000
    O785    O    0.15763   0.15811   0.76272   1.000
    O786    O    0.62505   0.68155   0.76503   1.000
    O787    O    0.62159   0.57618   0.77217   1.000
    O788    O    0.12506   0.68166   0.76504   1.000
    O789    O    0.12153   0.57630   0.77223   1.000
    O790    O    0.95068   0.63503   0.75575   1.000
    O791    O    0.91115   0.59469   0.77868   1.000
    O792    O    0.45067   0.63496   0.75574   1.000
    O793    O    0.41113   0.59466   0.77870   1.000
    O794    O    0.62374   0.75308   0.76982   1.000
    O795    O    0.12375   0.75319   0.76983   1.000
    O796    O    0.82640   0.56102   0.77586   1.000
    O797    O    0.86865   0.54486   0.78882   1.000
    O798    O    0.82627   0.49636   0.80084   1.000
    O799    O    0.32637   0.56106   0.77592   1.000
    O800    O    0.36861   0.54487   0.78885   1.000
    O801    O    0.32622   0.49639   0.80087   1.000
    O802    O    0.66437   0.72035   0.79626   1.000
    O803    O    0.16437   0.72043   0.79628   1.000
    O804    O    0.71828   0.82542   0.78054   1.000
    O805    O    0.71074   0.75844   0.79737   1.000
    O806    O    0.75735   0.79888   0.79918   1.000
    O807    O    0.21830   0.82547   0.78057   1.000
    O808    O    0.21075   0.75850   0.79739   1.000
    O809    O    0.25736   0.79892   0.79919   1.000
    O810    O    0.82671   0.90927   0.79666   1.000
    O811    O    0.80285   0.83875   0.79956   1.000
    O812    O    0.32672   0.90929   0.79667   1.000
    O813    O    0.30287   0.83877   0.79957   1.000
    O814    O    0.64881   0.24036   0.81821   1.000
    O815    O    0.14881   0.24032   0.81824   1.000
    O816    O    0.67584   0.50566   0.79201   1.000
    O817    O    0.62504   0.51240   0.85580   1.000
    O818    O    0.17575   0.50572   0.79206   1.000
    O819    O    0.12497   0.51249   0.85586   1.000
    O820    O    0.11999   0.33047   0.82449   1.000
    O821    O    0.61994   0.33046   0.82453   1.000
    O822    O    0.23775   0.47187   0.79873   1.000
    O823    O    0.73781   0.47187   0.79873   1.000
    O824    O    0.41151   0.52949   0.79935   1.000
    O825    O    0.91155   0.52952   0.79934   1.000
    O826    O    0.74476   0.39984   0.80190   1.000
    O827    O    0.69634   0.32876   0.82785   1.000
    O828    O    0.24474   0.39984   0.80191   1.000
    O829    O    0.19634   0.32875   0.82784   1.000
    O830    O    0.89809   0.57095   0.84619   1.000
    O831    O    0.39808   0.57092   0.84621   1.000
    O832    O    0.78324   0.45018   0.81530   1.000
    O833    O    0.28320   0.45020   0.81532   1.000
    O834    O    0.29847   0.23741   0.86912   1.000
    O835    O    0.79846   0.23740   0.86912   1.000
    O836    O    0.20224   0.69097   0.81210   1.000
    O837    O    0.70224   0.69092   0.81211   1.000
    O838    O    0.79671   0.77289   0.81498   1.000
    O839    O    0.29672   0.77290   0.81499   1.000
    O840    O    0.68886   0.73037   0.86070   1.000
    O841    O    0.18887   0.73041   0.86072   1.000
    O842    O    0.78223   0.81123   0.86394   1.000
    O843    O    0.28225   0.81124   0.86395   1.000
    O844    O    0.82499   0.43068   0.82357   1.000
    O845    O    0.32495   0.43072   0.82358   1.000
    O846    O    0.81328   0.47387   0.87029   1.000
    O847    O    0.31325   0.47388   0.87029   1.000
    O848    O    0.18799   0.25780   0.89119   1.000
    O849    O    0.15114   0.33972   0.90777   1.000
    O850    O    0.68798   0.25781   0.89119   1.000
    O851    O    0.65115   0.33972   0.90778   1.000
    O852    O    0.88643   0.61427   0.89337   1.000
    O853    O    0.91961   0.59211   0.89912   1.000
    O854    O    0.88528   0.54865   0.91580   1.000
    O855    O    0.38644   0.61425   0.89341   1.000
    O856    O    0.41961   0.59206   0.89914   1.000
    O857    O    0.38527   0.54862   0.91579   1.000
    O858    O    0.67377   0.76827   0.90944   1.000
    O859    O    0.67292   0.71159   0.91837   1.000
    O860    O    0.71352   0.74291   0.92540   1.000
    O861    O    0.17379   0.76830   0.90947   1.000
    O862    O    0.17294   0.71161   0.91838   1.000
    O863    O    0.21354   0.74293   0.92546   1.000
    O864    O    0.76955   0.85104   0.91245   1.000
    O865    O    0.79903   0.82063   0.92262   1.000
    O866    O    0.76029   0.78333   0.92684   1.000
    O867    O    0.26957   0.85105   0.91247   1.000
    O868    O    0.29905   0.82064   0.92264   1.000
    O869    O    0.26031   0.78334   0.92689   1.000
    O870    O    0.29990   0.51526   0.91765   1.000
    O871    O    0.34284   0.50006   0.92785   1.000
    O872    O    0.30495   0.46043   0.93204   1.000
    O873    O    0.79992   0.51526   0.91767   1.000
    O874    O    0.84286   0.50006   0.92788   1.000
    O875    O    0.80498   0.46043   0.93204   1.000
    O876    O    0.62585   0.48840   0.94658   1.000
    O877    O    0.12584   0.48843   0.94660   1.000
    O878    O    0.74134   0.22825   0.94624   1.000
    O879    O    0.24135   0.22825   0.94625   1.000
    O880    O    0.28678   0.24330   0.94957   1.000
    O881    O    0.78677   0.24330   0.94957   1.000
    O882    O    0.88499   0.48367   0.94086   1.000
    O883    O    0.38496   0.48364   0.94086   1.000
    O884    O    0.75264   0.71649   0.94296   1.000
    O885    O    0.25265   0.71650   0.94301   1.000
    O886    O    0.13841   0.42061   0.96591   1.000
    O887    O    0.63842   0.42059   0.96590   1.000
    O888    O    0.26139   0.29330   0.80244   1.000
    O889    O    0.76138   0.29330   0.80245   1.000
    O890    O    0.32518   0.18600   0.77555   1.000
    O891    O    0.82515   0.18597   0.77556   1.000
    O892    O    0.10639   0.43542   0.79189   1.000
    O893    O    0.60640   0.43533   0.79186   1.000
    O894    O    0.98856   0.20687   0.30245   1.000
    O895    O    0.48857   0.20688   0.30246   1.000
    O896    O    0.42483   0.31431   0.27567   1.000
    O897    O    0.92482   0.31425   0.27568   1.000
    O898    O    0.14365   0.06451   0.29250   1.000
    O899    O    0.64365   0.06449   0.29219   1.000
    O900    O    0.23863   0.70670   0.19755   1.000
    O901    O    0.73862   0.70670   0.19756   1.000
    O902    O    0.17486   0.81403   0.22444   1.000
    O903    O    0.67483   0.81400   0.22445   1.000
    O904    O    0.39360   0.56465   0.20812   1.000
    O905    O    0.89361   0.56457   0.20811   1.000
    O906    O    0.51143   0.79312   0.69754   1.000
    O907    O    0.01144   0.79313   0.69753   1.000
    O908    O    0.07518   0.68575   0.72433   1.000
    O909    O    0.57517   0.68568   0.72433   1.000
    O910    O    0.35635   0.93146   0.70750   1.000
    O911    O    0.85634   0.93146   0.70750   1.000
loop_
    _geom_bond_atom_site_label_1
    _geom_bond_atom_site_label_2
    _geom_bond_distance
    _geom_bond_site_symmetry_2
    _ccdc_geom_bond_type
    C195   O408      0.63899      .   S
    C325   O408      0.63899      .   S
    C195   O409      0.63576      .   S
    C327   O409      0.63576      .   S
    C195   O410      0.76532  1_554   S
    C193   O410      0.76532      .   S
    C194   O411      0.63900      .   S
    C324   O411      0.63900      .   S
    C194   O412      0.63575      .   S
    C326   O412      0.63575      .   S
    C194   O413      0.76595  1_554   S
    C192   O413      0.76595      .   S
    C311   O414      0.63391      .   S
    C407   O414      0.63391      .   S
    C311   O415      0.64133      .   S
    C405   O415      0.64133      .   S
    C311   O416      0.76330  1_554   S
    C309   O416      0.76330      .   S
    C310   O417      0.63686      .   S
    C406   O417      0.63686      .   S
    C310   O418      0.64149      .   S
    C404   O418      0.64149      .   S
    C310   O419      0.76254  1_554   S
    C308   O419      0.76254      .   S
    C324   O420      1.10614      .   S
    C12    O420      1.10614      .   S
    C325   O421      1.10633      .   S
    C13    O421      1.10633      .   S
    C99    O422      0.54960      .   S
    C245   O422      0.54960      .   S
    C98    O423      0.54975      .   S
    C244   O423      0.54975      .   S
    C237   O424      0.55369      .   S
    C95    O424      0.55369      .   S
    C237   O425      0.76975      .   S
    C219   O425      0.76975      .   S
    C237   O426      0.76681      .   S
    C233   O426      0.76681      .   S
    C237   O427      0.76254      .   S
    C239   O427      0.76254  1_556   S
    C236   O428      0.55375      .   S
    C94    O428      0.55375      .   S
    C236   O429      0.76974      .   S
    C218   O429      0.76974      .   S
    C236   O430      0.76683      .   S
    C232   O430      0.76683      .   S
    C236   O431      0.76255      .   S
    C238   O431      0.76255  1_556   S
    C265   O432      0.55056      .   S
    C125   O432      0.55056      .   S
    C265   O433      0.77046      .   S
    C245   O433      0.77046      .   S
    C265   O434      0.76667      .   S
    C263   O434      0.76667      .   S
    C265   O435      0.76540      .   S
    C267   O435      0.76540  1_556   S
    C264   O436      0.55056      .   S
    C124   O436      0.55056      .   S
    C264   O437      0.77051      .   S
    C244   O437      0.77051      .   S
    C264   O438      0.76666      .   S
    C262   O438      0.76666      .   S
    C264   O439      0.76533      .   S
    C266   O439      0.76533  1_556   S
    C77    O440      0.54849      .   S
    C219   O440      0.54849      .   S
    C76    O441      0.54850      .   S
    C218   O441      0.54850      .   S
    C407   O442      1.14667      .   S
    C15    O442      1.14667      .   S
    C406   O443      1.14010      .   S
    C14    O443      1.14010      .   S
    C90    O444      0.54910      .   S
    C232   O444      0.54910      .   S
    C91    O445      0.54908      .   S
    C233   O445      0.54908      .   S
    C405   O446      1.16140      .   S
    C13    O446      1.16140      .   S
    C404   O447      1.16129      .   S
    C12    O447      1.16129      .   S
    C101   O448      0.55069      .   S
    C245   O448      0.55069      .   S
    C100   O449      0.55072      .   S
    C244   O449      0.55072      .   S
    C327   O450      1.11999      .   S
    C11    O450      1.11999      .   S
    C326   O451      1.12042      .   S
    C10    O451      1.12042      .   S
    C75    O452      0.55068      .   S
    C219   O452      0.55068      .   S
    C74    O453      0.55069      .   S
    C218   O453      0.55069      .   S
    C245   O454      0.77247      .   S
    C243   O454      0.77247      .   S
    C244   O455      0.77220      .   S
    C242   O455      0.77220      .   S
    C93    O456      0.55055      .   S
    C233   O456      0.55055      .   S
    C92    O457      0.55056      .   S
    C232   O457      0.55056      .   S
    C123   O458      0.54967      .   S
    C263   O458      0.54967      .   S
    C122   O459      0.54967      .   S
    C262   O459      0.54967      .   S
    C219   O460      0.76529      .   S
    C217   O460      0.76529      .   S
    C218   O461      0.76530      .   S
    C216   O461      0.76530      .   S
    C233   O462      0.76622      .   S
    C213   O462      0.76622      .   S
    C232   O463      0.77196      .   S
    C212   O463      0.77196      .   S
    C121   O464      0.55062      .   S
    C263   O464      0.55062      .   S
    C120   O465      0.55063      .   S
    C262   O465      0.55063      .   S
    C263   O466      0.77145      .   S
    C259   O466      0.77145      .   S
    C262   O467      0.77140      .   S
    C258   O467      0.77140      .   S
    C13    O468      1.16382      .   S
    C361   O468      1.16382      .   S
    C13    O469      1.15793      .   S
    C377   O469      1.15793      .   S
    C13    O470      1.10316      .   S
    C345   O470      1.10316      .   S
    C12    O471      1.16393      .   S
    C360   O471      1.16393      .   S
    C12    O472      1.15823      .   S
    C376   O472      1.15823      .   S
    C12    O473      1.10327      .   S
    C344   O473      1.10327      .   S
    C243   O474      0.54906      .   S
    C97    O474      0.54906      .   S
    C243   O475      0.76069      .   S
    C241   O475      0.76069      .   S
    C243   O476      0.76682      .   S
    C257   O476      0.76682      .   S
    C242   O477      0.54905      .   S
    C96    O477      0.54905      .   S
    C242   O478      0.76065      .   S
    C240   O478      0.76065      .   S
    C242   O479      0.76684      .   S
    C256   O479      0.76684      .   S
    C217   O480      0.55226      .   S
    C73    O480      0.55226      .   S
    C217   O481      0.75900      .   S
    C235   O481      0.75900      .   S
    C217   O482      0.77102      .   S
    C215   O482      0.77102      .   S
    C216   O483      0.55234      .   S
    C72    O483      0.55234      .   S
    C216   O484      0.75904      .   S
    C234   O484      0.75904      .   S
    C216   O485      0.77102      .   S
    C214   O485      0.77102      .   S
    C213   O486      0.55142      .   S
    C67    O486      0.55142      .   S
    C213   O487      0.77143      .   S
    C215   O487      0.77143      .   S
    C213   O488      0.76168      .   S
    C211   O488      0.76168      .   S
    C212   O489      0.55050      .   S
    C66    O489      0.55050      .   S
    C212   O490      0.76897      .   S
    C214   O490      0.76897      .   S
    C212   O491      0.75873      .   S
    C210   O491      0.75873      .   S
    C355   O492      0.63282      .   S
    C235   O492      0.63282      .   S
    C355   O493      1.15618      .   S
    C17    O493      1.15618  1_565   S
    C354   O494      0.63279      .   S
    C234   O494      0.63279      .   S
    C354   O495      1.15624      .   S
    C16    O495      1.15624  1_565   S
    C14    O496      1.10846      .   S
    C346   O496      1.10846      .   S
    C14    O497      1.16301      .   S
    C362   O497      1.16301      .   S
    C15    O498      1.10867      .   S
    C347   O498      1.10867      .   S
    C15    O499      1.16323      .   S
    C363   O499      1.16323      .   S
    C241   O500      0.64553      .   S
    C361   O500      0.64553      .   S
    C241   O501      0.63287      .   S
    C367   O501      0.63287      .   S
    C240   O502      0.64550      .   S
    C360   O502      0.64550      .   S
    C240   O503      0.63285      .   S
    C366   O503      0.63285      .   S
    C259   O504      0.55143      .   S
    C119   O504      0.55143      .   S
    C259   O505      0.76515      .   S
    C257   O505      0.76515      .   S
    C259   O506      0.76510      .   S
    C261   O506      0.76510      .   S
    C258   O507      0.55141      .   S
    C118   O507      0.55141      .   S
    C258   O508      0.76515      .   S
    C256   O508      0.76515      .   S
    C258   O509      0.76485      .   S
    C260   O509      0.76485      .   S
    C366   O510      1.12436      .   S
    C10    O510      1.12436      .   S
    C367   O511      1.12511      .   S
    C11    O511      1.12511      .   S
    C376   O512      0.64869      .   S
    C270   O512      0.64869      .   S
    C377   O513      0.64867      .   S
    C271   O513      0.64867      .   S
    C11    O514      1.12193      .   S
    C341   O514      1.12193      .   S
    C11    O515      1.15934      .   S
    C379   O515      1.15934      .   S
    C10    O516      1.12210      .   S
    C340   O516      1.12210      .   S
    C10    O517      1.15895      .   S
    C378   O517      1.15895      .   S
    C81    O518      0.54979      .   S
    C221   O518      0.54979      .   S
    C80    O519      0.54982      .   S
    C220   O519      0.54982      .   S
    C106   O520      0.54929      .   S
    C250   O520      0.54929      .   S
    C107   O521      0.54886      .   S
    C251   O521      0.54886      .   S
    C69    O522      0.55069      .   S
    C215   O522      0.55069      .   S
    C68    O523      0.55068      .   S
    C214   O523      0.55068      .   S
    C345   O524      0.63772      .   S
    C225   O524      0.63772      .   S
    C344   O525      0.63774      .   S
    C224   O525      0.63774      .   S
    C235   O526      0.64334      .   S
    C353   O526      0.64334      .   S
    C234   O527      0.64817      .   S
    C352   O527      0.64817      .   S
    C215   O528      0.54929      .   S
    C71    O528      0.54929      .   S
    C214   O529      0.54933      .   S
    C70    O529      0.54933      .   S
    C114   O530      0.54928      .   S
    C256   O530      0.54928      .   S
    C115   O531      0.54926      .   S
    C257   O531      0.54926      .   S
    C210   O532      0.63289      .   S
    C338   O532      0.63289      .   S
    C210   O533      0.64864      .   S
    C340   O533      0.64864      .   S
    C211   O534      0.63277      .   S
    C339   O534      0.63277      .   S
    C211   O535      0.64844      .   S
    C341   O535      0.64844      .   S
    C257   O536      0.54951      .   S
    C117   O536      0.54951      .   S
    C256   O537      0.54989      .   S
    C116   O537      0.54989      .   S
    C339   O538      1.16330      .   S
    C9     O538      1.16330      .   S
    C338   O539      1.16299      .   S
    C8     O539      1.16299      .   S
    C370   O540      0.63667      .   S
    C260   O540      0.63667      .   S
    C370   O541      1.10845  1_455   S
    C9     O541      1.10845      .   S
    C371   O542      0.63670      .   S
    C261   O542      0.63670      .   S
    C371   O543      1.10858      .   S
    C8     O543      1.10858      .   S
    C260   O544      0.63809      .   S
    C368   O544      0.63809      .   S
    C261   O545      0.63786      .   S
    C369   O545      0.63786      .   S
    C364   O546      0.64848      .   S
    C246   O546      0.64848      .   S
    C364   O547      1.12262      .   S
    C16    O547      1.12262      .   S
    C365   O548      0.64848      .   S
    C247   O548      0.64848      .   S
    C365   O549      1.12259      .   S
    C17    O549      1.12259      .   S
    C225   O550      0.63677      .   S
    C347   O550      0.63677      .   S
    C225   O551      0.76516      .   S
    C223   O551      0.76516      .   S
    C224   O552      0.63674      .   S
    C346   O552      0.63674      .   S
    C224   O553      0.76518      .   S
    C222   O553      0.76518      .   S
    C363   O554      0.63277      .   S
    C247   O554      0.63277      .   S
    C362   O555      0.63278      .   S
    C246   O555      0.63278      .   S
    C221   O556      0.54927      .   S
    C79    O556      0.54927      .   S
    C221   O557      0.76539      .   S
    C223   O557      0.76539      .   S
    C221   O558      0.76713  1_565   S
    C207   O558      0.76713      .   S
    C220   O559      0.54927      .   S
    C78    O559      0.54927      .   S
    C220   O560      0.76539      .   S
    C222   O560      0.76539      .   S
    C220   O561      0.76716  1_565   S
    C206   O561      0.76716      .   S
    C247   O562      0.75905      .   S
    C249   O562      0.75905      .   S
    C246   O563      0.75899      .   S
    C248   O563      0.75899      .   S
    C251   O564      0.55072      .   S
    C105   O564      0.55072      .   S
    C251   O565      0.76914      .   S
    C249   O565      0.76914      .   S
    C251   O566      0.77131      .   S
    C252   O566      0.77131      .   S
    C250   O567      0.55068      .   S
    C104   O567      0.55068      .   S
    C250   O568      0.76886      .   S
    C248   O568      0.76886      .   S
    C250   O569      0.77099  1_455   S
    C253   O569      0.77099      .   S
    C369   O570      1.10378      .   S
    C7     O570      1.10378      .   S
    C271   O571      0.63271      .   S
    C379   O571      0.63271      .   S
    C271   O572      0.75893      .   S
    C253   O572      0.75893      .   S
    C368   O573      1.10372      .   S
    C6     O573      1.10372      .   S
    C270   O574      0.63272      .   S
    C378   O574      0.63272      .   S
    C270   O575      0.75905      .   S
    C252   O575      0.75905      .   S
    C17    O576      1.12548      .   S
    C343   O576      1.12548      .   S
    C17    O577      1.11846      .   S
    C399   O577      1.11846      .   S
    C16    O578      1.12548      .   S
    C342   O578      1.12548      .   S
    C16    O579      1.11855      .   S
    C398   O579      1.11855      .   S
    C353   O580      1.15860      .   S
    C7     O580      1.15860      .   S
    C343   O581      0.63287  1_565   S
    C205   O581      0.63287      .   S
    C342   O582      0.63288  1_565   S
    C204   O582      0.63288  1_655   S
    C352   O583      1.15645      .   S
    C6     O583      1.15645      .   S
    C83    O584      0.55150      .   S
    C223   O584      0.55150      .   S
    C82    O585      0.55149      .   S
    C222   O585      0.55149      .   S
    C336   O586      0.64564      .   S
    C204   O586      0.64564  1_655   S
    C336   O587      1.16411      .   S
    C6     O587      1.16411      .   S
    C337   O588      0.64561      .   S
    C205   O588      0.64561      .   S
    C337   O589      1.16396      .   S
    C7     O589      1.16396      .   S
    C223   O590      0.77115      .   S
    C227   O590      0.77115      .   S
    C222   O591      0.77110      .   S
    C226   O591      0.77110      .   S
    C205   O592      0.76089      .   S
    C206   O592      0.76089      .   S
    C204   O593      0.76082      .   S
    C207   O593      0.76082      .   S
    C8     O594      1.13948      .   S
    C334   O594      1.13948      .   S
    C9     O595      1.13929      .   S
    C335   O595      1.13929      .   S
    C103   O596      0.55063      .   S
    C249   O596      0.55063      .   S
    C102   O597      0.55063      .   S
    C248   O597      0.55063      .   S
    C109   O598      0.55235      .   S
    C253   O598      0.55235      .   S
    C108   O599      0.55239      .   S
    C252   O599      0.55239      .   S
    C249   O600      0.77197      .   S
    C269   O600      0.77197      .   S
    C248   O601      0.77194      .   S
    C268   O601      0.77194      .   S
    C61    O602      0.54904      .   S
    C207   O602      0.54904      .   S
    C60    O603      0.54905      .   S
    C206   O603      0.54905      .   S
    C253   O604      0.76513      .   S
    C255   O604      0.76513      .   S
    C252   O605      0.76510      .   S
    C254   O605      0.76510      .   S
    C207   O606      0.77217      .   S
    C209   O606      0.77217      .   S
    C206   O607      0.77218      .   S
    C208   O607      0.77218      .   S
    C7     O608      1.16050      .   S
    C333   O608      1.16050      .   S
    C7     O609      1.10328      .   S
    C397   O609      1.10328      .   S
    C6     O610      1.16050      .   S
    C332   O610      1.16050      .   S
    C6     O611      1.10657      .   S
    C396   O611      1.10657      .   S
    C227   O612      0.55064      .   S
    C85    O612      0.55064      .   S
    C227   O613      0.54961      .   S
    C87    O613      0.54961      .   S
    C227   O614      0.76630      .   S
    C229   O614      0.76630      .   S
    C226   O615      0.55064      .   S
    C84    O615      0.55064      .   S
    C226   O616      0.54962      .   S
    C86    O616      0.54962      .   S
    C226   O617      0.76393      .   S
    C228   O617      0.76393      .   S
    C269   O618      0.55056      .   S
    C129   O618      0.55056      .   S
    C269   O619      0.54909      .   S
    C127   O619      0.54909      .   S
    C269   O620      0.76674      .   S
    C273   O620      0.76674      .   S
    C268   O621      0.55056      .   S
    C128   O621      0.55056      .   S
    C268   O622      0.54910      .   S
    C126   O622      0.54910      .   S
    C268   O623      0.76673      .   S
    C272   O623      0.76673      .   S
    C255   O624      0.55067      .   S
    C111   O624      0.55067      .   S
    C255   O625      0.54849      .   S
    C113   O625      0.54849      .   S
    C255   O626      0.76956      .   S
    C272   O626      0.76956  1_455   S
    C254   O627      0.55070      .   S
    C110   O627      0.55070      .   S
    C254   O628      0.54847      .   S
    C112   O628      0.54847      .   S
    C254   O629      0.76959      .   S
    C273   O629      0.76959      .   S
    C209   O630      0.55074  1_545   S
    C65    O630      0.55074      .   S
    C209   O631      0.77049  1_545   S
    C229   O631      0.77049      .   S
    C209   O632      0.54975      .   S
    C63    O632      0.54975      .   S
    C208   O633      0.55074  1_545   S
    C64    O633      0.55074      .   S
    C208   O634      0.76920  1_545   S
    C228   O634      0.76920      .   S
    C208   O635      0.54976      .   S
    C62    O635      0.54976      .   S
    C399   O636      0.63592  1_565   S
    C303   O636      0.63592      .   S
    C398   O637      0.63587  1_565   S
    C302   O637      0.63587      .   S
    C333   O638      0.64152      .   S
    C202   O638      0.64152      .   S
    C332   O639      0.64140      .   S
    C203   O639      0.64140  1_655   S
    C335   O640      0.63685      .   S
    C203   O640      0.63685      .   S
    C334   O641      0.63684      .   S
    C202   O641      0.63684      .   S
    C89    O642      0.55055      .   S
    C229   O642      0.55055  1_565   S
    C88    O643      0.55041      .   S
    C228   O643      0.55041  1_565   S
    C131   O644      0.55371      .   S
    C272   O644      0.55371  1_455   S
    C130   O645      0.55374      .   S
    C273   O645      0.55374      .   S
    C228   O646      0.76896      .   S
    C230   O646      0.76896      .   S
    C229   O647      0.76495      .   S
    C231   O647      0.76495      .   S
    C272   O648      0.76240      .   S
    C274   O648      0.76240      .   S
    C273   O649      0.76238      .   S
    C275   O649      0.76238      .   S
    C397   O650      0.63948      .   S
    C303   O650      0.63948      .   S
    C396   O651      0.63876      .   S
    C302   O651      0.63876      .   S
    C202   O652      0.76230      .   S
    C200   O652      0.76230      .   S
    C203   O653      0.76240      .   S
    C201   O653      0.76240      .   S
    C303   O654      0.76494      .   S
    C301   O654      0.76494      .   S
    C302   O655      0.76494      .   S
    C300   O655      0.76494      .   S
    C231   O656      0.63863      .   S
    C349   O656      0.63863      .   S
    C231   O657      0.63592      .   S
    C351   O657      0.63592  1_545   S
    C230   O658      0.63876      .   S
    C348   O658      0.63876      .   S
    C230   O659      0.63590      .   S
    C350   O659      0.63590  1_545   S
    C274   O660      0.63686      .   S
    C382   O660      0.63686      .   S
    C274   O661      0.64141  1_455   S
    C381   O661      0.64141      .   S
    C275   O662      0.63682      .   S
    C383   O662      0.63682      .   S
    C275   O663      0.64146      .   S
    C380   O663      0.64146      .   S
    C349   O664      1.10716      .   S
    C19    O664      1.10716      .   S
    C348   O665      1.10661      .   S
    C18    O665      1.10661      .   S
    C135   O666      0.54974      .   S
    C281   O666      0.54974      .   S
    C134   O667      0.54974      .   S
    C280   O667      0.54974      .   S
    C200   O668      0.55368      .   S
    C59    O668      0.55368      .   S
    C200   O669      0.76958      .   S
    C183   O669      0.76958      .   S
    C200   O670      0.76642      .   S
    C196   O670      0.76642      .   S
    C201   O671      0.55368  1_655   S
    C58    O671      0.55368      .   S
    C201   O672      0.76956  1_655   S
    C182   O672      0.76956      .   S
    C201   O673      0.76673      .   S
    C197   O673      0.76673      .   S
    C301   O674      0.55055  1_545   S
    C161   O674      0.55055      .   S
    C301   O675      0.77048      .   S
    C281   O675      0.77048  1_565   S
    C301   O676      0.76631      .   S
    C299   O676      0.76631      .   S
    C300   O677      0.55054  1_545   S
    C160   O677      0.55054      .   S
    C300   O678      0.77048      .   S
    C280   O678      0.77048  1_565   S
    C300   O679      0.76631      .   S
    C298   O679      0.76631      .   S
    C41    O680      0.54845      .   S
    C183   O680      0.54845      .   S
    C40    O681      0.54849      .   S
    C182   O681      0.54849      .   S
    C382   O682      1.13935      .   S
    C20    O682      1.13935      .   S
    C383   O683      1.13946      .   S
    C21    O683      1.13946      .   S
    C55    O684      0.54911      .   S
    C197   O684      0.54911      .   S
    C54    O685      0.54881      .   S
    C196   O685      0.54881      .   S
    C381   O686      1.16056      .   S
    C19    O686      1.16056      .   S
    C380   O687      1.16052      .   S
    C18    O687      1.16052      .   S
    C351   O688      1.12432      .   S
    C5     O688      1.12432      .   S
    C350   O689      1.12417      .   S
    C4     O689      1.12417      .   S
    C136   O690      0.55075      .   S
    C280   O690      0.55075  1_565   S
    C137   O691      0.55072      .   S
    C281   O691      0.55072  1_565   S
    C39    O692      0.55070      .   S
    C183   O692      0.55070      .   S
    C38    O693      0.55068      .   S
    C182   O693      0.55068      .   S
    C57    O694      0.55057      .   S
    C197   O694      0.55057      .   S
    C56    O695      0.55046      .   S
    C196   O695      0.55046      .   S
    C281   O696      0.77218      .   S
    C279   O696      0.77218      .   S
    C280   O697      0.77217      .   S
    C278   O697      0.77217      .   S
    C159   O698      0.54973      .   S
    C299   O698      0.54973      .   S
    C158   O699      0.54962      .   S
    C298   O699      0.54962      .   S
    C183   O700      0.76512      .   S
    C181   O700      0.76512      .   S
    C182   O701      0.76515      .   S
    C180   O701      0.76515      .   S
    C196   O702      0.77265      .   S
    C176   O702      0.77265      .   S
    C197   O703      0.77195      .   S
    C177   O703      0.77195      .   S
    C157   O704      0.55064      .   S
    C299   O704      0.55064      .   S
    C156   O705      0.55064      .   S
    C298   O705      0.55064      .   S
    C299   O706      0.77111      .   S
    C295   O706      0.77111      .   S
    C298   O707      0.77114      .   S
    C294   O707      0.77114      .   S
    C19    O708      1.16392      .   S
    C385   O708      1.16392      .   S
    C19    O709      1.15639      .   S
    C401   O709      1.15639      .   S
    C19    O710      1.10371      .   S
    C321   O710      1.10371      .   S
    C18    O711      1.16397      .   S
    C384   O711      1.16397      .   S
    C18    O712      1.15627      .   S
    C400   O712      1.15627      .   S
    C18    O713      1.10375      .   S
    C320   O713      1.10375      .   S
    C279   O714      0.54902      .   S
    C133   O714      0.54902      .   S
    C279   O715      0.76088      .   S
    C276   O715      0.76088      .   S
    C279   O716      0.76716      .   S
    C293   O716      0.76716  1_545   S
    C278   O717      0.54905      .   S
    C132   O717      0.54905      .   S
    C278   O718      0.79862      .   S
    C277   O718      0.79862      .   S
    C278   O719      0.76714      .   S
    C292   O719      0.76714  1_545   S
    C181   O720      0.55230      .   S
    C37    O720      0.55230      .   S
    C181   O721      0.75907      .   S
    C199   O721      0.75907      .   S
    C181   O722      0.77110      .   S
    C178   O722      0.77110      .   S
    C180   O723      0.55228      .   S
    C36    O723      0.55228      .   S
    C180   O724      0.75897      .   S
    C198   O724      0.75897      .   S
    C180   O725      0.77100      .   S
    C179   O725      0.77100  1_655   S
    C177   O726      0.55062      .   S
    C31    O726      0.55062      .   S
    C177   O727      0.76887      .   S
    C179   O727      0.76887      .   S
    C177   O728      0.75901      .   S
    C175   O728      0.75901      .   S
    C176   O729      0.55064      .   S
    C30    O729      0.55064      .   S
    C176   O730      0.76897      .   S
    C178   O730      0.76897      .   S
    C176   O731      0.75887      .   S
    C174   O731      0.75887      .   S
    C331   O732      0.63274      .   S
    C199   O732      0.63274      .   S
    C331   O733      1.15881      .   S
    C23    O733      1.15881      .   S
    C330   O734      0.63275      .   S
    C198   O734      0.63275      .   S
    C330   O735      1.15922      .   S
    C22    O735      1.15922      .   S
    C21    O736      1.10859      .   S
    C322   O736      1.10859      .   S
    C21    O737      1.16291      .   S
    C387   O737      1.16291      .   S
    C20    O738      1.10842      .   S
    C323   O738      1.10842  1_655   S
    C20    O739      1.16317      .   S
    C386   O739      1.16317      .   S
    C277   O740      0.63523  1_455   S
    C385   O740      0.63523      .   S
    C277   O741      0.58581  1_455   S
    C391   O741      0.58581  1_545   S
    C276   O742      0.64562      .   S
    C384   O742      0.64562      .   S
    C276   O743      0.61052      .   S
    C390   O743      0.61052  1_545   S
    C295   O744      0.56911      .   S
    C155   O744      0.56911      .   S
    C295   O745      0.76540      .   S
    C293   O745      0.76540      .   S
    C295   O746      0.76508      .   S
    C297   O746      0.76508      .   S
    C294   O747      0.56878      .   S
    C154   O747      0.56878      .   S
    C294   O748      0.76538      .   S
    C292   O748      0.76538      .   S
    C294   O749      0.76517      .   S
    C296   O749      0.76517      .   S
    C401   O750      0.64818      .   S
    C307   O750      0.64818      .   S
    C400   O751      0.64819      .   S
    C306   O751      0.64819      .   S
    C390   O752      1.12394      .   S
    C4     O752      1.12394      .   S
    C391   O753      1.12397      .   S
    C5     O753      1.12397      .   S
    C5     O754      1.18125      .   S
    C317   O754      1.18125      .   S
    C5     O755      1.13239  1_545   S
    C403   O755      1.13239      .   S
    C4     O756      1.18150      .   S
    C316   O756      1.18150      .   S
    C4     O757      1.13231  1_545   S
    C402   O757      1.13231      .   S
    C45    O758      0.54981      .   S
    C185   O758      0.54981      .   S
    C44    O759      0.54983      .   S
    C184   O759      0.54983      .   S
    C143   O760      0.54932      .   S
    C287   O760      0.54932      .   S
    C142   O761      0.54929      .   S
    C286   O761      0.54929      .   S
    C32    O762      0.55070      .   S
    C178   O762      0.55070      .   S
    C33    O763      0.55068      .   S
    C179   O763      0.55068      .   S
    C199   O764      0.64863      .   S
    C329   O764      0.64863      .   S
    C198   O765      0.64862      .   S
    C328   O765      0.64862      .   S
    C321   O766      0.63784      .   S
    C189   O766      0.63784      .   S
    C320   O767      0.63786      .   S
    C188   O767      0.63786      .   S
    C178   O768      0.54927      .   S
    C34    O768      0.54927      .   S
    C179   O769      0.54928      .   S
    C35    O769      0.54928      .   S
    C150   O770      0.54927      .   S
    C292   O770      0.54927      .   S
    C151   O771      0.54927      .   S
    C293   O771      0.54927      .   S
    C174   O772      0.63282      .   S
    C314   O772      0.63282      .   S
    C174   O773      0.64861      .   S
    C316   O773      0.64861      .   S
    C175   O774      0.63276      .   S
    C315   O774      0.63276      .   S
    C175   O775      0.64844      .   S
    C317   O775      0.64844      .   S
    C293   O776      0.58281      .   S
    C153   O776      0.58281      .   S
    C292   O777      0.58285      .   S
    C152   O777      0.58285      .   S
    C314   O778      1.16330      .   S
    C2     O778      1.16330      .   S
    C315   O779      1.16305      .   S
    C3     O779      1.16305      .   S
    C395   O780      0.63672      .   S
    C297   O780      0.63672      .   S
    C395   O781      1.10858      .   S
    C3     O781      1.10858      .   S
    C394   O782      0.63675      .   S
    C296   O782      0.63675      .   S
    C394   O783      1.10865      .   S
    C2     O783      1.10865      .   S
    C297   O784      0.63786      .   S
    C393   O784      0.63786      .   S
    C296   O785      0.63774      .   S
    C392   O785      0.63774      .   S
    C389   O786      0.64842      .   S
    C283   O786      0.64842      .   S
    C389   O787      1.12207      .   S
    C23    O787      1.12207      .   S
    C388   O788      0.64843      .   S
    C282   O788      0.64843      .   S
    C388   O789      1.12195      .   S
    C22    O789      1.12195      .   S
    C189   O790      0.63667      .   S
    C323   O790      0.63667      .   S
    C189   O791      0.76507      .   S
    C187   O791      0.76507      .   S
    C188   O792      0.63671      .   S
    C322   O792      0.63671      .   S
    C188   O793      0.76509      .   S
    C186   O793      0.76509      .   S
    C387   O794      0.63279      .   S
    C283   O794      0.63279      .   S
    C386   O795      0.63278      .   S
    C282   O795      0.63278      .   S
    C185   O796      0.54926      .   S
    C43    O796      0.54926      .   S
    C185   O797      0.76514      .   S
    C187   O797      0.76514      .   S
    C185   O798      0.76689      .   S
    C171   O798      0.76689      .   S
    C184   O799      0.54925      .   S
    C42    O799      0.54925      .   S
    C184   O800      0.76514      .   S
    C186   O800      0.76514      .   S
    C184   O801      0.76683      .   S
    C170   O801      0.76683      .   S
    C283   O802      0.75903      .   S
    C285   O802      0.75903      .   S
    C282   O803      0.75900      .   S
    C284   O803      0.75900      .   S
    C287   O804      0.55069      .   S
    C141   O804      0.55069      .   S
    C287   O805      0.76896      .   S
    C285   O805      0.76896      .   S
    C287   O806      0.77103      .   S
    C289   O806      0.77103      .   S
    C286   O807      0.55069      .   S
    C140   O807      0.55069      .   S
    C286   O808      0.76895      .   S
    C284   O808      0.76895      .   S
    C286   O809      0.77101      .   S
    C288   O809      0.77101      .   S
    C307   O810      0.63283      .   S
    C403   O810      0.63283      .   S
    C307   O811      0.75906      .   S
    C289   O811      0.75906      .   S
    C306   O812      0.63280      .   S
    C402   O812      0.63280      .   S
    C306   O813      0.75901      .   S
    C288   O813      0.75901      .   S
    C393   O814      1.10326      .   S
    C1     O814      1.10326      .   S
    C392   O815      1.10314      .   S
    C0     O815      1.10314      .   S
    C23    O816      1.12432      .   S
    C319   O816      1.12432      .   S
    C23    O817      1.12061      .   S
    C375   O817      1.12061      .   S
    C22    O818      1.12495      .   S
    C318   O818      1.12495      .   S
    C22    O819      1.11952      .   S
    C374   O819      1.11952      .   S
    C328   O820      1.15799      .   S
    C0     O820      1.15799      .   S
    C329   O821      1.15828      .   S
    C1     O821      1.15828      .   S
    C318   O822      0.63285      .   S
    C168   O822      0.63285      .   S
    C319   O823      0.63284      .   S
    C169   O823      0.63284      .   S
    C46    O824      0.55142      .   S
    C186   O824      0.55142      .   S
    C47    O825      0.55141      .   S
    C187   O825      0.55141      .   S
    C313   O826      0.64550      .   S
    C169   O826      0.64550      .   S
    C313   O827      1.16399      .   S
    C1     O827      1.16399      .   S
    C312   O828      0.64552      .   S
    C168   O828      0.64552      .   S
    C312   O829      1.16383      .   S
    C0     O829      1.16383      .   S
    C187   O830      0.77141      .   S
    C191   O830      0.77141      .   S
    C186   O831      0.77146      .   S
    C190   O831      0.77146      .   S
    C169   O832      0.76064      .   S
    C171   O832      0.76064      .   S
    C168   O833      0.76069      .   S
    C170   O833      0.76069      .   S
    C2     O834      1.14019      .   S
    C358   O834      1.14019      .   S
    C3     O835      1.14015      .   S
    C359   O835      1.14015      .   S
    C138   O836      0.55061      .   S
    C284   O836      0.55061      .   S
    C139   O837      0.55060      .   S
    C285   O837      0.55060      .   S
    C145   O838      0.55235      .   S
    C289   O838      0.55235      .   S
    C144   O839      0.55234      .   S
    C288   O839      0.55234      .   S
    C285   O840      0.77197      .   S
    C305   O840      0.77197      .   S
    C284   O841      0.77199      .   S
    C304   O841      0.77199      .   S
    C289   O842      0.76531      .   S
    C291   O842      0.76531      .   S
    C288   O843      0.76529      .   S
    C290   O843      0.76529      .   S
    C25    O844      0.54905      .   S
    C171   O844      0.54905      .   S
    C24    O845      0.54904      .   S
    C170   O845      0.54904      .   S
    C171   O846      0.77213      .   S
    C173   O846      0.77213      .   S
    C170   O847      0.77175      .   S
    C172   O847      0.77175      .   S
    C0     O848      1.16125      .   S
    C356   O848      1.16125      .   S
    C0     O849      1.10628      .   S
    C372   O849      1.10628      .   S
    C1     O850      1.16127      .   S
    C357   O850      1.16127      .   S
    C1     O851      1.10605      .   S
    C373   O851      1.10605      .   S
    C191   O852      0.55062      .   S
    C49    O852      0.55062      .   S
    C191   O853      0.54969      .   S
    C51    O853      0.54969      .   S
    C191   O854      0.76666      .   S
    C193   O854      0.76666      .   S
    C190   O855      0.55062      .   S
    C48    O855      0.55062      .   S
    C190   O856      0.54969      .   S
    C50    O856      0.54969      .   S
    C190   O857      0.76632      .   S
    C192   O857      0.76632      .   S
    C305   O858      0.55057      .   S
    C165   O858      0.55057      .   S
    C305   O859      0.54910      .   S
    C163   O859      0.54910      .   S
    C305   O860      0.76650      .   S
    C309   O860      0.76650      .   S
    C304   O861      0.55055      .   S
    C164   O861      0.55055      .   S
    C304   O862      0.54907      .   S
    C162   O862      0.54907      .   S
    C304   O863      0.76682      .   S
    C308   O863      0.76682      .   S
    C291   O864      0.55067      .   S
    C147   O864      0.55067      .   S
    C291   O865      0.54846      .   S
    C149   O865      0.54846      .   S
    C291   O866      0.76942      .   S
    C309   O866      0.76942      .   S
    C290   O867      0.55070      .   S
    C146   O867      0.55070      .   S
    C290   O868      0.54850      .   S
    C148   O868      0.54850      .   S
    C290   O869      0.76975      .   S
    C308   O869      0.76975      .   S
    C172   O870      0.55071      .   S
    C28    O870      0.55071      .   S
    C172   O871      0.77050      .   S
    C192   O871      0.77050      .   S
    C172   O872      0.55003      .   S
    C26    O872      0.55003      .   S
    C173   O873      0.55072      .   S
    C29    O873      0.55072      .   S
    C173   O874      0.77051      .   S
    C193   O874      0.77051      .   S
    C173   O875      0.54975      .   S
    C27    O875      0.54975      .   S
    C375   O876      0.63576      .   S
    C267   O876      0.63576      .   S
    C374   O877      0.63612      .   S
    C266   O877      0.63612      .   S
    C357   O878      0.64149      .   S
    C239   O878      0.64149      .   S
    C356   O879      0.64150      .   S
    C238   O879      0.64150      .   S
    C358   O880      0.63685      .   S
    C238   O880      0.63685      .   S
    C359   O881      0.63684      .   S
    C239   O881      0.63684      .   S
    C53    O882      0.55056      .   S
    C193   O882      0.55056      .   S
    C52    O883      0.55053      .   S
    C192   O883      0.55053      .   S
    C167   O884      0.55368      .   S
    C309   O884      0.55368      .   S
    C166   O885      0.55375      .   S
    C308   O885      0.55375      .   S
    C372   O886      0.63899      .   S
    C266   O886      0.63899      .   S
    C373   O887      0.63901      .   S
    C267   O887      0.63901      .   S
    C312   O888      1.20568      .   S
    C2     O888      1.20568      .   S
    C313   O889      1.20557      .   S
    C3     O889      1.20557      .   S
    C316   O890      1.24674      .   S
    C2     O890      1.24674      .   S
    C317   O891      1.24683      .   S
    C3     O891      1.24683      .   S
    C328   O892      1.22602      .   S
    C22    O892      1.22602      .   S
    C329   O893      1.22654      .   S
    C23    O893      1.22654      .   S
    C336   O894      1.20717  1_455   S
    C9     O894      1.20717      .   S
    C337   O895      1.20715      .   S
    C8     O895      1.20715      .   S
    C340   O896      1.24621      .   S
    C8     O896      1.24621      .   S
    C341   O897      1.24572      .   S
    C9     O897      1.24572      .   S
    C352   O898      1.22992      .   S
    C16    O898      1.22992  1_565   S
    C353   O899      1.23000      .   S
    C17    O899      1.23000  1_565   S
    C360   O900      1.20559      .   S
    C14    O900      1.20559      .   S
    C361   O901      1.20572      .   S
    C15    O901      1.20572      .   S
    C364   O902      1.24676      .   S
    C14    O902      1.24676      .   S
    C365   O903      1.24675      .   S
    C15    O903      1.24675      .   S
    C376   O904      1.22646      .   S
    C10    O904      1.22646      .   S
    C377   O905      1.22584      .   S
    C11    O905      1.22584      .   S
    C384   O906      1.20711      .   S
    C21    O906      1.20711      .   S
    C385   O907      1.20711  1_655   S
    C20    O907      1.20711      .   S
    C388   O908      1.24580      .   S
    C20    O908      1.24580      .   S
    C389   O909      1.24632      .   S
    C21    O909      1.24632      .   S
    C400   O910      1.17492      .   S
    C4     O910      1.17492  1_545   S
    C401   O911      1.17498      .   S
    C5     O911      1.17498  1_545   S
