# CIF file generated by openbabel 2.4.90, see http://openbabel.sf.net
data_I
_chemical_name_common ''
_cell_length_a 24.165
_cell_length_b 15.381
_cell_length_c 17.043
_cell_angle_alpha 89.908
_cell_angle_beta 90.006
_cell_angle_gamma 91.729
_space_group_name_H-M_alt 'P 1'
_space_group_name_Hall 'P 1'
loop_
    _symmetry_equiv_pos_as_xyz
    x,y,z
loop_
    _atom_site_label
    _atom_site_type_symbol
    _atom_site_fract_x
    _atom_site_fract_y
    _atom_site_fract_z
    _atom_site_occupancy
    Zr0     Zr   0.15646   0.29776   0.85582   1.000
    Zr1     Zr   0.65646   0.29779   0.85583   1.000
    Zr2     Zr   0.28657   0.22687   0.80502   1.000
    Zr3     Zr   0.78655   0.22686   0.80503   1.000
    Zr4     Zr   0.37916   0.00000   0.70860   1.000
    Zr5     Zr   0.87915   0.00000   0.70860   1.000
    Zr6     Zr   0.09342   0.20238   0.35552   1.000
    Zr7     Zr   0.59342   0.20238   0.35550   1.000
    Zr8     Zr   0.46346   0.27347   0.30518   1.000
    Zr9     Zr   0.96344   0.27345   0.30519   1.000
    Zr10    Zr   0.37064   0.49246   0.20946   1.000
    Zr11    Zr   0.87076   0.49233   0.20936   1.000
    Zr12    Zr   0.34355   0.70223   0.14418   1.000
    Zr13    Zr   0.84354   0.70226   0.14418   1.000
    Zr14    Zr   0.21346   0.77314   0.19497   1.000
    Zr15    Zr   0.71344   0.77314   0.19498   1.000
    Zr16    Zr   0.12084   0.99195   0.29140   1.000
    Zr17    Zr   0.62084   0.99192   0.29138   1.000
    Zr18    Zr   0.40658   0.79763   0.64449   1.000
    Zr19    Zr   0.90658   0.79763   0.64448   1.000
    Zr20    Zr   0.03656   0.72655   0.69481   1.000
    Zr21    Zr   0.53655   0.72653   0.69481   1.000
    Zr22    Zr   0.12926   0.50765   0.79062   1.000
    Zr23    Zr   0.62937   0.50752   0.79050   1.000
    N24     N    0.23611   0.76922   0.86200   1.000
    N25     N    0.85643   0.52085   0.85824   1.000
    N26     N    0.35640   0.52084   0.85826   1.000
    N27     N    0.98628   0.26901   0.63791   1.000
    N28     N    0.48635   0.26893   0.63788   1.000
    N29     N    0.73610   0.76919   0.86198   1.000
    N30     N    0.10634   0.02040   0.64197   1.000
    N31     N    0.89365   0.97864   0.35801   1.000
    N32     N    0.14357   0.47917   0.14175   1.000
    N33     N    0.26389   0.23081   0.13801   1.000
    N34     N    0.64360   0.47917   0.14172   1.000
    N35     N    0.60634   0.02040   0.64196   1.000
    N36     N    0.76388   0.23078   0.13795   1.000
    N37     N    0.39365   0.97865   0.35800   1.000
    N38     N    0.51366   0.73106   0.36209   1.000
    N39     N    0.01373   0.73100   0.36207   1.000
    C40     C    0.62043   0.71700   0.76449   1.000
    O41     O    0.66033   0.73088   0.79680   1.000
    O42     O    0.62101   0.64659   0.76833   1.000
    O43     O    0.59780   0.70134   0.74441   1.000
    O44     O    0.59714   0.73710   0.74680   1.000
    C45     C    0.12043   0.71711   0.76450   1.000
    O46     O    0.09715   0.73719   0.74681   1.000
    O47     O    0.16034   0.73097   0.79682   1.000
    O48     O    0.12098   0.64670   0.76837   1.000
    O49     O    0.09781   0.70143   0.74441   1.000
    C50     C    0.57978   0.39313   0.73238   1.000
    O51     O    0.54982   0.34834   0.70062   1.000
    O52     O    0.59353   0.43411   0.73481   1.000
    O53     O    0.59986   0.36179   0.77845   1.000
    O54     O    0.59309   0.41423   0.76212   1.000
    C55     C    0.48726   0.93323   0.70107   1.000
    O56     O    0.52853   0.95931   0.68230   1.000
    O57     O    0.46685   0.88095   0.68672   1.000
    O58     O    0.49935   0.86318   0.69930   1.000
    O59     O    0.45647   0.96662   0.70434   1.000
    C60     C    0.51434   0.73507   0.55810   1.000
    O61     O    0.53140   0.73618   0.59443   1.000
    O62     O    0.47619   0.74647   0.58355   1.000
    O63     O    0.51324   0.73679   0.49206   1.000
    C64     C    0.38253   0.95303   0.54879   1.000
    O65     O    0.37874   0.98093   0.59610   1.000
    O66     O    0.38451   0.96449   0.48498   1.000
    O67     O    0.39188   0.89638   0.57064   1.000
    C68     C    0.07942   0.39352   0.73251   1.000
    O69     O    0.09310   0.43453   0.73500   1.000
    O70     O    0.04957   0.34862   0.70072   1.000
    O71     O    0.09971   0.36200   0.77850   1.000
    O72     O    0.09291   0.41447   0.76220   1.000
    C73     C    0.63251   0.45282   0.95096   1.000
    O74     O    0.62877   0.48261   0.90338   1.000
    O75     O    0.64183   0.39627   0.92937   1.000
    O76     O    0.63449   0.46455   0.01468   1.000
    C77     C    0.73728   0.43449   0.79910   1.000
    O78     O    0.71681   0.38163   0.81347   1.000
    O79     O    0.74933   0.36390   0.80077   1.000
    O80     O    0.77856   0.46000   0.81794   1.000
    O81     O    0.70656   0.47008   0.79555   1.000
    C82     C    0.43092   0.65086   0.74384   1.000
    O83     O    0.41496   0.69550   0.71306   1.000
    O84     O    0.40734   0.60431   0.78116   1.000
    O85     O    0.46885   0.66656   0.73481   1.000
    C86     C    0.13250   0.45285   0.95097   1.000
    O87     O    0.14182   0.39629   0.92937   1.000
    O88     O    0.13448   0.46456   0.01470   1.000
    O89     O    0.12874   0.48267   0.90342   1.000
    C90     C    0.68065   0.15242   0.75546   1.000
    O91     O    0.65714   0.10529   0.71848   1.000
    O92     O    0.66473   0.19639   0.78684   1.000
    O93     O    0.71863   0.16816   0.76426   1.000
    C94     C    0.18064   0.15239   0.75552   1.000
    O95     O    0.16473   0.19635   0.78688   1.000
    O96     O    0.15714   0.10527   0.71852   1.000
    O97     O    0.21863   0.16815   0.76429   1.000
    C98     C    0.26436   0.23482   0.94190   1.000
    O99     O    0.22618   0.24631   0.91655   1.000
    O100    O    0.26333   0.23651   0.00797   1.000
    O101    O    0.28142   0.23611   0.90551   1.000
    C102    C    0.87051   0.21730   0.73554   1.000
    O103    O    0.84723   0.23742   0.75320   1.000
    O104    O    0.91044   0.23105   0.70321   1.000
    O105    O    0.87098   0.14492   0.73144   1.000
    O106    O    0.84783   0.20164   0.75555   1.000
    C107    C    0.01433   0.73505   0.55809   1.000
    O108    O    0.03140   0.73618   0.59443   1.000
    O109    O    0.01326   0.73675   0.49204   1.000
    O110    O    0.97618   0.74647   0.58353   1.000
    C111    C    0.76435   0.23481   0.94189   1.000
    O112    O    0.76332   0.23649   0.00795   1.000
    O113    O    0.72617   0.24631   0.91654   1.000
    O114    O    0.78140   0.23611   0.90551   1.000
    C115    C    0.32900   0.89383   0.76658   1.000
    O116    O    0.29924   0.84891   0.79868   1.000
    O117    O    0.34953   0.86205   0.72101   1.000
    O118    O    0.34267   0.91265   0.73704   1.000
    O119    O    0.34263   0.93300   0.76397   1.000
    C120    C    0.93093   0.65091   0.74384   1.000
    O121    O    0.96885   0.66662   0.73481   1.000
    O122    O    0.91496   0.69553   0.71305   1.000
    O123    O    0.90736   0.60434   0.78115   1.000
    C124    C    0.82899   0.89382   0.76657   1.000
    O125    O    0.84262   0.93299   0.76396   1.000
    O126    O    0.84952   0.86205   0.72100   1.000
    O127    O    0.84266   0.91264   0.73703   1.000
    O128    O    0.79923   0.84890   0.79867   1.000
    C129    C    0.98616   0.93324   0.70106   1.000
    O130    O    0.02757   0.95932   0.68230   1.000
    O131    O    0.96631   0.88095   0.68671   1.000
    O132    O    0.99880   0.86318   0.69930   1.000
    O133    O    0.95591   0.96662   0.70433   1.000
    C134    C    0.23724   0.43449   0.79910   1.000
    O135    O    0.21679   0.38162   0.81347   1.000
    O136    O    0.24931   0.36390   0.80077   1.000
    O137    O    0.27852   0.46001   0.81794   1.000
    O138    O    0.20649   0.47011   0.79558   1.000
    C139    C    0.88253   0.95301   0.54875   1.000
    O140    O    0.88451   0.96448   0.48502   1.000
    O141    O    0.87873   0.98092   0.59607   1.000
    O142    O    0.89188   0.89637   0.57059   1.000
    C143    C    0.37055   0.21734   0.73553   1.000
    O144    O    0.34727   0.23746   0.75319   1.000
    O145    O    0.41049   0.23105   0.70319   1.000
    O146    O    0.37101   0.14496   0.73143   1.000
    O147    O    0.34786   0.20167   0.75554   1.000
    C148    C    0.48566   0.26493   0.44189   1.000
    O149    O    0.48676   0.26321   0.50793   1.000
    O150    O    0.46860   0.26381   0.40556   1.000
    O151    O    0.52381   0.25352   0.41644   1.000
    C152    C    0.31935   0.84759   0.24453   1.000
    O153    O    0.33527   0.80362   0.21316   1.000
    O154    O    0.28137   0.83184   0.23573   1.000
    O155    O    0.34286   0.89448   0.28150   1.000
    C156    C    0.76277   0.56551   0.20089   1.000
    O157    O    0.79352   0.52989   0.20441   1.000
    O158    O    0.78322   0.61838   0.18653   1.000
    O159    O    0.75069   0.63610   0.19923   1.000
    O160    O    0.72149   0.54000   0.18204   1.000
    C161    C    0.61747   0.04698   0.45104   1.000
    O162    O    0.60812   0.10363   0.42915   1.000
    O163    O    0.61549   0.03528   0.51486   1.000
    O164    O    0.62126   0.01705   0.40381   1.000
    C165    C    0.42025   0.60682   0.26761   1.000
    O166    O    0.40015   0.63818   0.22154   1.000
    O167    O    0.40692   0.58574   0.23786   1.000
    O168    O    0.45020   0.65162   0.29936   1.000
    O169    O    0.40651   0.56583   0.26516   1.000
    C170    C    0.86750   0.54716   0.04900   1.000
    O171    O    0.87127   0.51733   0.09655   1.000
    O172    O    0.86552   0.53545   0.98528   1.000
    O173    O    0.85818   0.60372   0.07062   1.000
    C174    C    0.67100   0.10616   0.23322   1.000
    O175    O    0.70075   0.15108   0.20120   1.000
    O176    O    0.65737   0.06497   0.23592   1.000
    O177    O    0.65047   0.13794   0.27873   1.000
    O178    O    0.65732   0.08533   0.26270   1.000
    C179    C    0.12950   0.78271   0.26446   1.000
    O180    O    0.15278   0.76258   0.24680   1.000
    O181    O    0.12903   0.85307   0.26855   1.000
    O182    O    0.15218   0.79837   0.24445   1.000
    O183    O    0.08957   0.76897   0.29679   1.000
    C184    C    0.17101   0.10618   0.23342   1.000
    O185    O    0.15048   0.13795   0.27899   1.000
    O186    O    0.15733   0.08534   0.26296   1.000
    O187    O    0.15738   0.06499   0.23603   1.000
    O188    O    0.20076   0.15110   0.20132   1.000
    C189    C    0.06908   0.34910   0.25614   1.000
    O190    O    0.09264   0.39567   0.21883   1.000
    O191    O    0.03115   0.33339   0.26518   1.000
    O192    O    0.08504   0.30448   0.28695   1.000
    C193    C    0.11747   0.04699   0.45123   1.000
    O194    O    0.10812   0.10364   0.42937   1.000
    O195    O    0.11549   0.03529   0.51497   1.000
    O196    O    0.12127   0.01707   0.40392   1.000
    C197    C    0.62946   0.78266   0.26445   1.000
    O198    O    0.62899   0.85303   0.26855   1.000
    O199    O    0.65214   0.79833   0.24445   1.000
    O200    O    0.65273   0.76255   0.24679   1.000
    O201    O    0.58951   0.76895   0.29678   1.000
    C202    C    0.81936   0.84762   0.24449   1.000
    O203    O    0.83527   0.80367   0.21312   1.000
    O204    O    0.78137   0.83185   0.23572   1.000
    O205    O    0.84286   0.89450   0.28147   1.000
    C206    C    0.87957   0.28288   0.23550   1.000
    O207    O    0.83966   0.26902   0.20308   1.000
    O208    O    0.87903   0.35328   0.23163   1.000
    O209    O    0.90219   0.29856   0.25559   1.000
    O210    O    0.90285   0.26280   0.25319   1.000
    C211    C    0.56908   0.34915   0.25615   1.000
    O212    O    0.58504   0.30451   0.28694   1.000
    O213    O    0.59266   0.39571   0.21883   1.000
    O214    O    0.53115   0.33344   0.26519   1.000
    C215    C    0.01274   0.06552   0.29892   1.000
    O216    O    0.04354   0.02982   0.29566   1.000
    O217    O    0.97147   0.03983   0.31769   1.000
    O218    O    0.03315   0.11843   0.31327   1.000
    O219    O    0.00065   0.13620   0.30068   1.000
    C220    C    0.37957   0.28299   0.23548   1.000
    O221    O    0.33967   0.26911   0.20317   1.000
    O222    O    0.40286   0.26289   0.25318   1.000
    O223    O    0.37900   0.35340   0.23165   1.000
    O224    O    0.40220   0.29865   0.25558   1.000
    C225    C    0.51274   0.06553   0.29893   1.000
    O226    O    0.53315   0.11843   0.31328   1.000
    O227    O    0.50065   0.13620   0.30070   1.000
    O228    O    0.47147   0.03983   0.31769   1.000
    O229    O    0.54353   0.02982   0.29566   1.000
    C230    C    0.98567   0.26494   0.44190   1.000
    O231    O    0.02381   0.25353   0.41646   1.000
    O232    O    0.96860   0.26381   0.40557   1.000
    O233    O    0.98674   0.26324   0.50795   1.000
    C234    C    0.36749   0.54718   0.04903   1.000
    O235    O    0.36551   0.53546   0.98530   1.000
    O236    O    0.37123   0.51739   0.09660   1.000
    O237    O    0.35817   0.60373   0.07063   1.000
    C238    C    0.92065   0.60641   0.26746   1.000
    O239    O    0.90033   0.63797   0.22149   1.000
    O240    O    0.90713   0.58549   0.23778   1.000
    O241    O    0.95048   0.65134   0.29926   1.000
    O242    O    0.90699   0.56539   0.26496   1.000
    C243    C    0.73564   0.76518   0.05782   1.000
    O244    O    0.71858   0.76389   0.09416   1.000
    O245    O    0.73667   0.76350   0.99188   1.000
    O246    O    0.77382   0.75370   0.08331   1.000
    C247    C    0.23565   0.76519   0.05811   1.000
    O248    O    0.23668   0.76351   0.99204   1.000
    O249    O    0.27383   0.75369   0.08346   1.000
    O250    O    0.21860   0.76389   0.09450   1.000
    C251    C    0.26273   0.56550   0.20089   1.000
    O252    O    0.28320   0.61837   0.18652   1.000
    O253    O    0.25068   0.63610   0.19922   1.000
    O254    O    0.29345   0.52991   0.20443   1.000
    O255    O    0.22145   0.54000   0.18206   1.000
loop_
    _geom_bond_atom_site_label_1
    _geom_bond_atom_site_label_2
    _geom_bond_distance
    _geom_bond_site_symmetry_2
    _ccdc_geom_bond_type
    C40    O41       1.12547      .   S
    N29    O41       2.20680      .   S
    C40    O42       1.08536      .   S
    Zr23   O42       2.18684      .   S
    C40    O43       0.68293      .   S
    Zr21   O43       1.75752      .   S
    C40    O44       0.71645      .   S
    Zr21   O44       1.71508      .   S
    C45    O46       0.71622      .   S
    Zr20   O46       1.71507      .   S
    C45    O47       1.12545      .   S
    N24    O47       2.20678      .   S
    C45    O48       1.08527      .   S
    Zr22   O48       2.18663      .   S
    C45    O49       0.68304      .   S
    Zr20   O49       1.75710      .   S
    C50    O51       1.12366      .   S
    N28    O51       2.20879      .   S
    C50    O52       0.70490      .   S
    Zr23   O52       1.69415      .   S
    C50    O53       1.04744      .   S
    Zr1    O53       2.15765      .   S
    C50    O54       0.67816      .   S
    Zr23   O54       1.72856      .   S
    C55    O56       1.11051      .   S
    N35    O56       2.18693  1_545   S
    C55    O57       0.96248      .   S
    Zr18   O57       2.04260      .   S
    C55    O58       1.12534      .   S
    Zr21   O58       2.31208      .   S
    C55    O59       0.91859      .   S
    Zr4    O59       1.95361  1_545   S
    C60    O61       0.74378      .   S
    Zr21   O61       1.72171      .   S
    C60    O62       1.03871      .   S
    Zr18   O62       2.14711      .   S
    C60    O63       1.12620      .   S
    N38    O63       2.21702      .   S
    C64    O65       0.91983      .   S
    Zr4    O65       1.94010  1_545   S
    C64    O66       1.10229      .   S
    N37    O66       2.18526      .   S
    C64    O67       0.97963      .   S
    Zr18   O67       2.01086      .   S
    C68    O69       0.70468      .   S
    Zr22   O69       1.69430      .   S
    C68    O70       1.12332      .   S
    N27    O70       2.20804  1_655   S
    C68    O71       1.05005      .   S
    Zr0    O71       2.16124      .   S
    C68    O72       0.67833      .   S
    Zr22   O72       1.72823      .   S
    C73    O74       0.93650      .   S
    Zr23   O74       1.96092      .   S
    C73    O75       0.97747      .   S
    Zr1    O75       2.00726      .   S
    C73    O76       1.10197  1_556   S
    N34    O76       2.18747      .   S
    C77    O78       0.97004      .   S
    Zr1    O78       2.04810      .   S
    C77    O79       1.13302      .   S
    Zr3    O79       2.31749      .   S
    C77    O80       1.10846      .   S
    N25    O80       2.18724      .   S
    C77    O81       0.93739      .   S
    Zr23   O81       1.97041      .   S
    C82    O83       0.95410      .   S
    Zr18   O83       1.97160      .   S
    C82    O84       1.10267      .   S
    N26    O84       2.18852      .   S
    C82    O85       0.95314      .   S
    Zr21   O85       1.97452      .   S
    C86    O87       0.97777      .   S
    Zr0    O87       2.00786      .   S
    C86    O88       1.10210  1_556   S
    N32    O88       2.18763      .   S
    C86    O89       0.93640      .   S
    Zr22   O89       1.95975      .   S
    C90    O91       1.10540      .   S
    N35    O91       2.19565      .   S
    C90    O92       0.95300      .   S
    Zr1    O92       1.96965      .   S
    C90    O93       0.95400      .   S
    Zr3    O93       1.97582      .   S
    C94    O95       0.95278      .   S
    Zr0    O95       1.96925      .   S
    C94    O96       1.10540      .   S
    N30    O96       2.19577      .   S
    C94    O97       0.95415      .   S
    Zr2    O97       1.97608      .   S
    C98    O99       1.03872      .   S
    Zr0    O99       2.14771      .   S
    C98    O100      1.12667  1_556   S
    N33    O100      2.21792      .   S
    C98    O101      0.74465      .   S
    Zr2    O101      1.72355      .   S
    C102   O103      0.71664      .   S
    Zr3    O103      1.71542      .   S
    C102   O104      1.12558      .   S
    N27    O104      2.20717      .   S
    C102   O105      1.11595      .   S
    Zr5    O105      2.27785      .   S
    C102   O106      0.68297      .   S
    Zr3    O106      1.75805      .   S
    C107   O108      0.74398      .   S
    Zr20   O108      1.72185      .   S
    C107   O109      1.12622      .   S
    N39    O109      2.21705      .   S
    C107   O110      1.03863  1_455   S
    Zr19   O110      2.14705      .   S
    C111   O112      1.12641  1_556   S
    N36    O112      2.21723      .   S
    C111   O113      1.03869      .   S
    Zr1    O113      2.14768      .   S
    C111   O114      0.74453      .   S
    Zr3    O114      1.72336      .   S
    C115   O116      1.12362      .   S
    N24    O116      2.20850      .   S
    C115   O117      1.05075      .   S
    Zr18   O117      2.16110      .   S
    C115   O118      0.66350      .   S
    Zr4    O118      1.65651  1_545   S
    C115   O119      0.67935      .   S
    Zr4    O119      1.63511  1_545   S
    C120   O121      0.95324      .   S
    Zr20   O121      1.97454  1_455   S
    C120   O122      0.95391      .   S
    Zr19   O122      1.97130      .   S
    C120   O123      1.10264      .   S
    N25    O123      2.18851      .   S
    C124   O125      0.67938      .   S
    Zr5    O125      1.63522  1_545   S
    C124   O126      1.05079      .   S
    Zr19   O126      2.16124      .   S
    C124   O127      0.66353      .   S
    Zr5    O127      1.65661  1_545   S
    C124   O128      1.12364      .   S
    N29    O128      2.20852      .   S
    C129   O130      1.11343  1_655   S
    N30    O130      2.20665  1_545   S
    C129   O131      0.95605      .   S
    Zr19   O131      2.03332      .   S
    C129   O132      1.12922      .   S
    Zr20   O132      2.31761  1_455   S
    C129   O133      0.90765      .   S
    Zr5    O133      1.94086  1_545   S
    C134   O135      0.96988      .   S
    Zr0    O135      2.04772      .   S
    C134   O136      1.13314      .   S
    Zr2    O136      2.31774      .   S
    C134   O137      1.10858      .   S
    N26    O137      2.18748      .   S
    C134   O138      0.93812      .   S
    Zr22   O138      1.97198      .   S
    C139   O140      1.10090      .   S
    N31    O140      2.18567      .   S
    C139   O141      0.92014      .   S
    Zr5    O141      1.94060  1_545   S
    C139   O142      0.97957      .   S
    Zr19   O142      2.01119      .   S
    C143   O144      0.71668      .   S
    Zr2    O144      1.71573      .   S
    C143   O145      1.12572      .   S
    N28    O145      2.20735      .   S
    C143   O146      1.11610      .   S
    Zr4    O146      2.27826      .   S
    C143   O147      0.68317      .   S
    Zr2    O147      1.75817      .   S
    C148   O149      1.12612      .   S
    N28    O149      2.21675      .   S
    C148   O150      0.74379      .   S
    Zr8    O150      1.72174      .   S
    C148   O151      1.03873      .   S
    Zr7    O151      2.14712      .   S
    C152   O153      0.95290      .   S
    Zr12   O153      1.96955      .   S
    C152   O154      0.95397      .   S
    Zr14   O154      1.97568      .   S
    C152   O155      1.10296      .   S
    N37    O155      2.18899      .   S
    C156   O157      0.93824      .   S
    Zr11   O157      1.97228      .   S
    C156   O158      0.96990      .   S
    Zr13   O158      2.04774      .   S
    C156   O159      1.13316      .   S
    Zr15   O159      2.31780      .   S
    C156   O160      1.10864      .   S
    N34    O160      2.18761      .   S
    C161   O162      0.97993      .   S
    Zr7    O162      2.00875      .   S
    C161   O163      1.10307      .   S
    N35    O163      2.18827      .   S
    C161   O164      0.93373      .   S
    Zr17   O164      1.95536  1_565   S
    C165   O166      1.04768      .   S
    Zr12   O166      2.15795      .   S
    C165   O167      0.67824      .   S
    Zr10   O167      1.72855      .   S
    C165   O168      1.12362      .   S
    N38    O168      2.20866      .   S
    C165   O169      0.70488      .   S
    Zr10   O169      1.69427      .   S
    C170   O171      0.93633      .   S
    Zr11   O171      1.96013      .   S
    C170   O172      1.10194  1_554   S
    N25    O172      2.18749      .   S
    C170   O173      0.97792      .   S
    Zr13   O173      2.00814      .   S
    C174   O175      1.12288      .   S
    N36    O175      2.20799      .   S
    C174   O176      0.70668      .   S
    Zr17   O176      1.69466  1_565   S
    C174   O177      1.05013      .   S
    Zr7    O177      2.16367      .   S
    C174   O178      0.67646      .   S
    Zr17   O178      1.73255  1_565   S
    C179   O180      0.71662      .   S
    Zr14   O180      1.71536      .   S
    C179   O181      1.08501      .   S
    Zr16   O181      2.18671      .   S
    C179   O182      0.68297      .   S
    Zr14   O182      1.75798      .   S
    C179   O183      1.12557      .   S
    N39    O183      2.20709      .   S
    C184   O185      1.05080      .   S
    Zr6    O185      2.16133      .   S
    C184   O186      0.67712      .   S
    Zr16   O186      1.73128  1_565   S
    C184   O187      0.70652      .   S
    Zr16   O187      1.69374  1_565   S
    C184   O188      1.12366      .   S
    N33    O188      2.20856      .   S
    C189   O190      1.10265      .   S
    N32    O190      2.18839      .   S
    C189   O191      0.95328      .   S
    Zr9    O191      1.97464  1_655   S
    C189   O192      0.95401      .   S
    Zr6    O192      1.97141      .   S
    C193   O194      0.97964      .   S
    Zr6    O194      2.01084      .   S
    C193   O195      1.10162      .   S
    N30    O195      2.18672      .   S
    C193   O196      0.93489      .   S
    Zr16   O196      1.95676  1_565   S
    C197   O198      1.08510      .   S
    Zr17   O198      2.18681      .   S
    C197   O199      0.68308      .   S
    Zr15   O199      1.75809      .   S
    C197   O200      0.71663      .   S
    Zr15   O200      1.71560      .   S
    C197   O201      1.12571      .   S
    N38    O201      2.20736      .   S
    C202   O203      0.95277      .   S
    Zr13   O203      1.96925      .   S
    C202   O204      0.95415      .   S
    Zr15   O204      1.97608      .   S
    C202   O205      1.10295      .   S
    N31    O205      2.18914      .   S
    C206   O207      1.12630      .   S
    N36    O207      2.20640      .   S
    C206   O208      1.08525      .   S
    Zr11   O208      2.18658      .   S
    C206   O209      0.68310      .   S
    Zr9    O209      1.75708      .   S
    C206   O210      0.71618      .   S
    Zr9    O210      1.71515      .   S
    C211   O212      0.95407      .   S
    Zr7    O212      1.97160      .   S
    C211   O213      1.10273      .   S
    N34    O213      2.18866      .   S
    C211   O214      0.95317      .   S
    Zr8    O214      1.97457      .   S
    C215   O216      0.93987      .   S
    Zr16   O216      1.97490  1_565   S
    C215   O217      1.10857  1_455   S
    N31    O217      2.18753  1_565   S
    C215   O218      0.97032      .   S
    Zr6    O218      2.04853      .   S
    C215   O219      1.13451      .   S
    Zr9    O219      2.32087  1_655   S
    C220   O221      1.12547      .   S
    N33    O221      2.20669      .   S
    C220   O222      0.71649      .   S
    Zr8    O222      1.71522      .   S
    C220   O223      1.08533      .   S
    Zr10   O223      2.18681      .   S
    C220   O224      0.68308      .   S
    Zr8    O224      1.75755      .   S
    C225   O226      0.97035      .   S
    Zr7    O226      2.04845      .   S
    C225   O227      1.13453      .   S
    Zr8    O227      2.32088      .   S
    C225   O228      1.10854      .   S
    N37    O228      2.18743  1_565   S
    C225   O229      0.93992      .   S
    Zr17   O229      1.97496  1_565   S
    C230   O231      1.03862  1_655   S
    Zr6    O231      2.14699      .   S
    C230   O232      0.74392      .   S
    Zr9    O232      1.72173      .   S
    C230   O233      1.12619      .   S
    N27    O233      2.21695      .   S
    C234   O235      1.10218  1_554   S
    N26    O235      2.18753      .   S
    C234   O236      0.93641      .   S
    Zr10   O236      1.96064      .   S
    C234   O237      0.97754      .   S
    Zr12   O237      2.00744      .   S
    C238   O239      1.05062      .   S
    Zr13   O239      2.16201      .   S
    C238   O240      0.67840      .   S
    Zr11   O240      1.72812      .   S
    C238   O241      1.12323      .   S
    N39    O241      2.20780  1_455   S
    C238   O242      0.70461      .   S
    Zr11   O242      1.69436      .   S
    C243   O244      0.74378      .   S
    Zr15   O244      1.72924      .   S
    C243   O245      1.12455  1_554   S
    N29    O245      2.21553      .   S
    C243   O246      1.03961      .   S
    Zr13   O246      2.14889      .   S
    C247   O248      1.12667  1_554   S
    N24    O248      2.21796      .   S
    C247   O249      1.03870      .   S
    Zr12   O249      2.14772      .   S
    C247   O250      0.74452      .   S
    Zr14   O250      1.72329      .   S
    C251   O252      0.97007      .   S
    Zr12   O252      2.04809      .   S
    C251   O253      1.13303      .   S
    Zr14   O253      2.31752      .   S
    C251   O254      0.93744      .   S
    Zr10   O254      1.97051      .   S
    C251   O255      1.10848      .   S
    N32    O255      2.18731      .   S
