# CIF file generated by openbabel 2.4.90, see http://openbabel.sf.net
data_I
_chemical_name_common ''
_cell_length_a 13.215
_cell_length_b 17.408
_cell_length_c 17.409
_cell_angle_alpha 81.734
_cell_angle_beta 67.678
_cell_angle_gamma 67.69
_space_group_name_H-M_alt 'P 1'
_space_group_name_Hall 'P 1'
loop_
    _symmetry_equiv_pos_as_xyz
    x,y,z
loop_
    _atom_site_label
    _atom_site_type_symbol
    _atom_site_fract_x
    _atom_site_fract_y
    _atom_site_fract_z
    _atom_site_occupancy
    H0      H    0.19850   0.07279   0.07290   1.000
    H1      H    0.84420   0.42710   0.42726   1.000
    H2      H    0.77123   0.92727   0.57300   1.000
    H3      H    0.77134   0.57294   0.92724   1.000
    H4      H    0.15576   0.57288   0.57279   1.000
    H5      H    0.80150   0.92721   0.92710   1.000
    H6      H    0.22867   0.07275   0.42706   1.000
    H7      H    0.22866   0.42704   0.07274   1.000
    C8      C    0.25645   0.02435   0.02446   1.000
    C9      C    0.80522   0.47555   0.47570   1.000
    C10     C    0.78075   0.97567   0.52450   1.000
    C11     C    0.78079   0.52452   0.97566   1.000
    C12     C    0.19473   0.52444   0.52435   1.000
    C13     C    0.74353   0.97566   0.97554   1.000
    C14     C    0.21918   0.02434   0.47549   1.000
    C15     C    0.21920   0.47547   0.02433   1.000
loop_
    _geom_bond_atom_site_label_1
    _geom_bond_atom_site_label_2
    _geom_bond_distance
    _geom_bond_site_symmetry_2
    _ccdc_geom_bond_type
    C15    H7        1.11015      .   S
    C8     H0        1.11007      .   S
    H6     C14       1.11017      .   S
    H1     C9        1.11015      .   S
    C12    H4        1.11017      .   S
    C10    H2        1.11079      .   S
    H5     C13       1.11013      .   S
    H3     C11       1.11013      .   S
