# CIF file generated by openbabel 2.4.90, see http://openbabel.sf.net
data_I
_chemical_name_common ''
_cell_length_a 13.215
_cell_length_b 17.408
_cell_length_c 17.409
_cell_angle_alpha 81.734
_cell_angle_beta 67.678
_cell_angle_gamma 67.69
_space_group_name_H-M_alt 'P 1'
_space_group_name_Hall 'P 1'
loop_
    _symmetry_equiv_pos_as_xyz
    x,y,z
loop_
    _atom_site_label
    _atom_site_type_symbol
    _atom_site_fract_x
    _atom_site_fract_y
    _atom_site_fract_z
    _atom_site_occupancy
    Lv0     Lv   0.22393   0.45126   0.04854   1.000
    Lv1     Lv   0.17525   0.54866   0.54857   1.000
    Lv2     Lv   0.82471   0.45132   0.45148   1.000
    Lv3     Lv   0.22392   0.04855   0.45128   1.000
    Lv4     Lv   0.77599   0.95147   0.54875   1.000
    Lv5     Lv   0.22748   0.04857   0.04868   1.000
    Lv6     Lv   0.77607   0.54873   0.95145   1.000
    Lv7     Lv   0.77252   0.95143   0.95132   1.000
