# CIF file generated by openbabel 2.4.90, see http://openbabel.sf.net
data_I
_chemical_name_common ''
_cell_length_a 13.215
_cell_length_b 17.408
_cell_length_c 17.409
_cell_angle_alpha 81.734
_cell_angle_beta 67.678
_cell_angle_gamma 67.69
_space_group_name_H-M_alt 'P 1'
_space_group_name_Hall 'P 1'
loop_
    _symmetry_equiv_pos_as_xyz
    x,y,z
loop_
    _atom_site_label
    _atom_site_type_symbol
    _atom_site_fract_x
    _atom_site_fract_y
    _atom_site_fract_z
    _atom_site_occupancy
    H0      H    0.20450   0.18626   0.95502   1.000
    H1      H    0.25111   0.15348   0.85211   1.000
    H2      H    0.28266   0.00743   0.89680   1.000
    H3      H    0.13908   0.07103   0.95479   1.000
    H4      H    0.84591   0.31365   0.54512   1.000
    H5      H    0.75682   0.34639   0.64805   1.000
    H6      H    0.68684   0.49243   0.60336   1.000
    H7      H    0.66494   0.42877   0.54542   1.000
    H8      H    0.65944   0.04520   0.68648   1.000
    H9      H    0.60320   0.14811   0.65370   1.000
    H10     H    0.67934   0.10331   0.50770   1.000
    H11     H    0.59366   0.04545   0.57130   1.000
    H12     H    0.89076   0.45507   0.81374   1.000
    H13     H    0.90457   0.35216   0.84639   1.000
    H14     H    0.79003   0.39689   0.99251   1.000
    H15     H    0.71008   0.45485   0.92896   1.000
    H16     H    0.15416   0.45504   0.68625   1.000
    H17     H    0.24329   0.35212   0.65350   1.000
    H18     H    0.31315   0.39680   0.50744   1.000
    H19     H    0.33509   0.45478   0.57104   1.000
    H20     H    0.79538   0.04513   0.81363   1.000
    H21     H    0.74870   0.14804   0.84644   1.000
    H22     H    0.71728   0.10329   0.99246   1.000
    H23     H    0.86086   0.04538   0.92879   1.000
    H24     H    0.10923   0.18628   0.54497   1.000
    H25     H    0.09539   0.15360   0.64787   1.000
    H26     H    0.20989   0.00750   0.60312   1.000
    H27     H    0.28989   0.07104   0.54517   1.000
    H28     H    0.34043   0.31355   0.95487   1.000
    H29     H    0.39676   0.34624   0.85195   1.000
    H30     H    0.32071   0.49229   0.89669   1.000
    H31     H    0.40629   0.42866   0.95459   1.000
    H32     H    0.79551   0.81375   0.04500   1.000
    H33     H    0.74884   0.84657   0.14792   1.000
    H34     H    0.71729   0.99261   0.10315   1.000
    H35     H    0.86088   0.92900   0.04523   1.000
    H36     H    0.15407   0.68634   0.45491   1.000
    H37     H    0.24315   0.65357   0.35198   1.000
    H38     H    0.31312   0.50754   0.39669   1.000
    H39     H    0.33502   0.57121   0.45462   1.000
    H40     H    0.34045   0.95484   0.31355   1.000
    H41     H    0.39672   0.85194   0.34628   1.000
    H42     H    0.32061   0.89671   0.49232   1.000
    H43     H    0.40626   0.95459   0.42860   1.000
    H44     H    0.10921   0.54489   0.18627   1.000
    H45     H    0.09542   0.64780   0.15365   1.000
    H46     H    0.20997   0.60310   0.00752   1.000
    H47     H    0.28992   0.54512   0.07107   1.000
    H48     H    0.84578   0.54495   0.31380   1.000
    H49     H    0.75666   0.64787   0.34653   1.000
    H50     H    0.68680   0.60318   0.49261   1.000
    H51     H    0.66486   0.54521   0.42901   1.000
    H52     H    0.20460   0.95488   0.18636   1.000
    H53     H    0.25129   0.85197   0.15355   1.000
    H54     H    0.28269   0.89673   0.00753   1.000
    H55     H    0.13912   0.95463   0.07120   1.000
    H56     H    0.89070   0.81373   0.45511   1.000
    H57     H    0.90454   0.84638   0.35220   1.000
    H58     H    0.79005   0.99249   0.39693   1.000
    H59     H    0.71004   0.92896   0.45489   1.000
    H60     H    0.65961   0.68645   0.04508   1.000
    H61     H    0.60322   0.65380   0.14801   1.000
    H62     H    0.67927   0.50773   0.10331   1.000
    H63     H    0.59370   0.57136   0.04500   1.000
    H64     H    0.19850   0.07279   0.07290   1.000
    H65     H    0.84420   0.42710   0.42726   1.000
    H66     H    0.77123   0.92727   0.57300   1.000
    H67     H    0.77134   0.57294   0.92724   1.000
    H68     H    0.15576   0.57288   0.57279   1.000
    H69     H    0.80150   0.92721   0.92710   1.000
    H70     H    0.22867   0.07275   0.42706   1.000
    H71     H    0.22866   0.42704   0.07274   1.000
    C72     C    0.26366   0.13375   0.91180   1.000
    C73     C    0.23173   0.05656   0.94450   1.000
    C74     C    0.80930   0.36615   0.58835   1.000
    C75     C    0.73278   0.44331   0.55569   1.000
    C76     C    0.67541   0.08837   0.63397   1.000
    C77     C    0.67608   0.05567   0.55680   1.000
    C78     C    0.89741   0.41183   0.86619   1.000
    C79     C    0.78825   0.44455   0.94340   1.000
    C80     C    0.19077   0.41179   0.63377   1.000
    C81     C    0.26723   0.44447   0.55656   1.000
    C82     C    0.73621   0.08832   0.86616   1.000
    C83     C    0.76821   0.05563   0.94332   1.000
    C84     C    0.10257   0.13381   0.58819   1.000
    C85     C    0.21171   0.05659   0.55546   1.000
    C86     C    0.32453   0.36604   0.91167   1.000
    C87     C    0.32390   0.44321   0.94430   1.000
    C88     C    0.73632   0.86627   0.08822   1.000
    C89     C    0.76824   0.94347   0.05550   1.000
    C90     C    0.19067   0.63383   0.41169   1.000
    C91     C    0.26718   0.55666   0.44435   1.000
    C92     C    0.32452   0.91166   0.36605   1.000
    C93     C    0.32385   0.94435   0.44322   1.000
    C94     C    0.10258   0.58815   0.13382   1.000
    C95     C    0.21174   0.55543   0.05660   1.000
    C96     C    0.80918   0.58820   0.36628   1.000
    C97     C    0.73272   0.55552   0.44349   1.000
    C98     C    0.26377   0.91169   0.13383   1.000
    C99     C    0.23178   0.94438   0.05667   1.000
    C100    C    0.89736   0.86618   0.41187   1.000
    C101    C    0.78823   0.94341   0.44459   1.000
    C102    C    0.67547   0.63398   0.08831   1.000
    C103    C    0.67610   0.55680   0.05564   1.000
    C104    C    0.38084   0.01220   0.01225   1.000
    C105    C    0.25645   0.02435   0.02446   1.000
    C106    C    0.90525   0.48775   0.48784   1.000
    C107    C    0.80522   0.47555   0.47570   1.000
    C108    C    0.89300   0.98780   0.51232   1.000
    C109    C    0.78075   0.97567   0.52450   1.000
    C110    C    0.89304   0.51230   0.98779   1.000
    C111    C    0.78079   0.52452   0.97566   1.000
    C112    C    0.09470   0.51223   0.51221   1.000
    C113    C    0.19473   0.52444   0.52435   1.000
    C114    C    0.61915   0.98780   0.98774   1.000
    C115    C    0.74353   0.97566   0.97554   1.000
    C116    C    0.10693   0.01221   0.48773   1.000
    C117    C    0.21918   0.02434   0.47549   1.000
    C118    C    0.10695   0.48771   0.01220   1.000
    C119    C    0.21920   0.47547   0.02433   1.000
loop_
    _geom_bond_atom_site_label_1
    _geom_bond_atom_site_label_2
    _geom_bond_distance
    _geom_bond_site_symmetry_2
    _ccdc_geom_bond_type
    H46    C95       1.10265      .   S
    H54    C99       1.10257      .   S
    C118   C119      1.50848      .   S
    C104   C105      1.50847      .   S
    C119   C95       1.53016      .   S
    C119   H71       1.11015      .   S
    C119   C87       1.53020  1_554   S
    C105   C99       1.52980  1_545   S
    C105   H64       1.11007      .   S
    C105   C73       1.52998  1_554   S
    H32    C88       1.10524      .   S
    H63    C103      1.10201      .   S
    H60    C102      1.10518      .   S
    H35    C89       1.09857      .   S
    C89    C88       1.52842      .   S
    C89    H34       1.10258      .   S
    C89    C115      1.52980  1_554   S
    C103   C102      1.52840      .   S
    C103   H62       1.10253      .   S
    C103   C111      1.52973  1_554   S
    C95    H47       1.09853      .   S
    C95    C94       1.52834      .   S
    C99    H55       1.09854      .   S
    C99    C98       1.52837      .   S
    C88    H33       1.10014      .   S
    C102   H61       1.09999      .   S
    C94    H45       1.10013      .   S
    C94    H44       1.10519      .   S
    C98    H53       1.10015      .   S
    C98    H52       1.10503      .   S
    H40    C92       1.10506      .   S
    H48    C96       1.10502      .   S
    H41    C92       1.10010      .   S
    H49    C96       1.10014      .   S
    H37    C90       1.10012      .   S
    H57    C100      1.10008      .   S
    C92    C93       1.52835      .   S
    C96    C97       1.52844      .   S
    H38    C91       1.10253      .   S
    H58    C101      1.10252      .   S
    C90    C91       1.52838      .   S
    C90    H36       1.10511      .   S
    C100   C101      1.52845      .   S
    C100   H56       1.10509      .   S
    H70    C117      1.11017      .   S
    H65    C107      1.11015      .   S
    H43    C93       1.09830      .   S
    H51    C97       1.09858      .   S
    C93    C117      1.52977  1_565   S
    C93    H42       1.10257      .   S
    C97    C107      1.53013      .   S
    C97    H50       1.10250      .   S
    C91    H39       1.09861      .   S
    C91    C113      1.53012      .   S
    C101   H59       1.09853      .   S
    C101   C109      1.52920      .   S
    C117   C116      1.50845      .   S
    C117   C85       1.53011      .   S
    C107   C106      1.50850      .   S
    C107   C75       1.53005      .   S
    H18    C81       1.10255      .   S
    H10    C77       1.10248      .   S
    C112   C113      1.50854      .   S
    C108   C109      1.50872      .   S
    C113   C81       1.53011      .   S
    C113   H68       1.11017      .   S
    C109   C77       1.52991  1_565   S
    C109   H66       1.11079      .   S
    H24    C84       1.10507      .   S
    H4     C74       1.10506      .   S
    H27    C85       1.09856      .   S
    H7     C75       1.09856      .   S
    C85    C84       1.52841      .   S
    C85    H26       1.10262      .   S
    C75    C74       1.52841      .   S
    C75    H6        1.10255      .   S
    C81    H19       1.09855      .   S
    C81    C80       1.52846      .   S
    C77    H11       1.09865      .   S
    C77    C76       1.52836      .   S
    C84    H25       1.10013      .   S
    C74    H5        1.10010      .   S
    C80    H17       1.09992      .   S
    C80    H16       1.10505      .   S
    C76    H9        1.10005      .   S
    C76    H8        1.10508      .   S
    H20    C82       1.10506      .   S
    H12    C78       1.10506      .   S
    H13    C78       1.10007      .   S
    H21    C82       1.10013      .   S
    H29    C86       1.10009      .   S
    H1     C72       1.10018      .   S
    C82    C83       1.52836      .   S
    C78    C79       1.52819      .   S
    H30    C87       1.10200      .   S
    H2     C73       1.10299      .   S
    C86    C87       1.52795      .   S
    C86    H28       1.10510      .   S
    C72    C73       1.52837      .   S
    C72    H0        1.10508      .   S
    H69    C115      1.11013      .   S
    H67    C111      1.11013      .   S
    H23    C83       1.09853      .   S
    H15    C79       1.09835      .   S
    C83    C115      1.52984  1_545   S
    C83    H22       1.10261      .   S
    C79    C111      1.53029      .   S
    C79    H14       1.10287      .   S
    C87    H31       1.09892      .   S
    C73    H3        1.09853      .   S
    C115   C114      1.50845      .   S
    C111   C110      1.50850      .   S
