# CIF file generated by openbabel 2.4.90, see http://openbabel.sf.net
data_I
_chemical_name_common ''
_cell_length_a 13.215
_cell_length_b 17.408
_cell_length_c 17.409
_cell_angle_alpha 81.734
_cell_angle_beta 67.678
_cell_angle_gamma 67.69
_space_group_name_H-M_alt 'P 1'
_space_group_name_Hall 'P 1'
loop_
    _symmetry_equiv_pos_as_xyz
    x,y,z
loop_
    _atom_site_label
    _atom_site_type_symbol
    _atom_site_fract_x
    _atom_site_fract_y
    _atom_site_fract_z
    _atom_site_occupancy
    Cu0     Cu   0.88730   0.25008   0.72528   1.000
    Cu1     Cu   0.63736   0.22527   0.75014   1.000
    Cu2     Cu   0.11274   0.27477   0.74989   1.000
    Cu3     Cu   0.63743   0.75017   0.22520   1.000
    Cu4     Cu   0.11266   0.74990   0.27476   1.000
    Cu5     Cu   0.36259   0.77475   0.24988   1.000
    Cu6     Cu   0.88722   0.72520   0.25016   1.000
    Cu7     Cu   0.36256   0.24984   0.77479   1.000
