# CIF file generated by openbabel 2.4.90, see http://openbabel.sf.net
data_I
_chemical_name_common ''
_cell_length_a 13.215
_cell_length_b 17.408
_cell_length_c 17.409
_cell_angle_alpha 81.734
_cell_angle_beta 67.678
_cell_angle_gamma 67.69
_space_group_name_H-M_alt 'P 1'
_space_group_name_Hall 'P 1'
loop_
    _symmetry_equiv_pos_as_xyz
    x,y,z
loop_
    _atom_site_label
    _atom_site_type_symbol
    _atom_site_fract_x
    _atom_site_fract_y
    _atom_site_fract_z
    _atom_site_occupancy
    Zr0     Zr   0.36256   0.24984   0.77479   1.000
    Zr1     Zr   0.88730   0.25008   0.72528   1.000
    Zr2     Zr   0.63736   0.22527   0.75014   1.000
    Zr3     Zr   0.11274   0.27477   0.74989   1.000
    Zr4     Zr   0.63743   0.75017   0.22520   1.000
    Zr5     Zr   0.11266   0.74990   0.27476   1.000
    Zr6     Zr   0.36259   0.77475   0.24988   1.000
    Zr7     Zr   0.88722   0.72520   0.25016   1.000
    Zr8     Zr   0.49995   0.32941   0.67066   1.000
    Zr9     Zr   0.99999   0.17064   0.82942   1.000
    Zr10    Zr   0.67047   0.32955   0.82952   1.000
    Zr11    Zr   0.32951   0.17051   0.67040   1.000
    Zr12    Zr   0.50002   0.67059   0.32934   1.000
    Zr13    Zr   0.99997   0.82936   0.17063   1.000
    Zr14    Zr   0.32947   0.67048   0.17052   1.000
    Zr15    Zr   0.67046   0.82947   0.32955   1.000
    O16     O    0.22107   0.71019   0.22264   1.000
    O17     O    0.05632   0.78963   0.22270   1.000
    O18     O    0.43130   0.72267   0.28961   1.000
    O19     O    0.77884   0.77733   0.28986   1.000
    O20     O    0.22113   0.22264   0.71015   1.000
    O21     O    0.56866   0.27734   0.71040   1.000
    O22     O    0.94364   0.21036   0.77735   1.000
    O23     O    0.65391   0.27741   0.78983   1.000
    N24     N    0.22393   0.45126   0.04854   1.000
    N25     N    0.17525   0.54866   0.54857   1.000
    N26     N    0.82471   0.45132   0.45148   1.000
    N27     N    0.22392   0.04855   0.45128   1.000
    N28     N    0.77599   0.95147   0.54875   1.000
    N29     N    0.22748   0.04857   0.04868   1.000
    N30     N    0.77607   0.54873   0.95145   1.000
    N31     N    0.77252   0.95143   0.95132   1.000
    C32     C    0.89290   0.10715   0.60715   1.000
    O33     O    0.80293   0.14852   0.65721   1.000
    O34     O    0.89146   0.15719   0.64849   1.000
    C35     C    0.10705   0.39286   0.89286   1.000
    O36     O    0.10852   0.35152   0.84280   1.000
    O37     O    0.19702   0.34278   0.85152   1.000
    C38     C    0.49994   0.10710   0.89280   1.000
    O39     O    0.45133   0.15709   0.85150   1.000
    O40     O    0.54855   0.14848   0.84268   1.000
    C41     C    0.00003   0.39290   0.60711   1.000
    O42     O    0.96007   0.34289   0.64849   1.000
    O43     O    0.04000   0.35154   0.65711   1.000
    C44     C    0.10702   0.89286   0.39289   1.000
    O45     O    0.10847   0.84281   0.35153   1.000
    O46     O    0.19701   0.85150   0.34281   1.000
    C47     C    0.99992   0.60708   0.39293   1.000
    O48     O    0.03988   0.65710   0.35155   1.000
    O49     O    0.95996   0.64843   0.34293   1.000
    C50     C    0.89293   0.60714   0.10712   1.000
    O51     O    0.89146   0.64848   0.15719   1.000
    O52     O    0.80297   0.65721   0.14848   1.000
    C53     C    0.50004   0.89291   0.10707   1.000
    O54     O    0.45142   0.85154   0.15708   1.000
    O55     O    0.54865   0.84292   0.14841   1.000
    O56     O    0.41822   0.08803   0.92400   1.000
    O57     O    0.58169   0.07598   0.91188   1.000
    O58     O    0.93036   0.41193   0.57601   1.000
    O59     O    0.06968   0.42405   0.58804   1.000
    O60     O    0.15769   0.41188   0.92399   1.000
    O61     O    0.00625   0.42405   0.91193   1.000
    O62     O    0.93027   0.57594   0.41200   1.000
    O63     O    0.06960   0.58805   0.42403   1.000
    O64     O    0.99373   0.57594   0.08806   1.000
    O65     O    0.84230   0.58813   0.07598   1.000
    O66     O    0.15766   0.92399   0.41190   1.000
    O67     O    0.99371   0.08807   0.57597   1.000
    O68     O    0.41829   0.92402   0.08804   1.000
    O69     O    0.58177   0.91198   0.07593   1.000
    O70     O    0.00622   0.91193   0.42408   1.000
    O71     O    0.84227   0.07602   0.58814   1.000
loop_
    _geom_bond_atom_site_label_1
    _geom_bond_atom_site_label_2
    _geom_bond_distance
    _geom_bond_site_symmetry_2
    _ccdc_geom_bond_type
    Zr14   O16       1.33962      .   S
    Zr5    O16       1.33962      .   S
    Zr13   O17       1.34003  1_655   S
    Zr5    O17       1.34003      .   S
    Zr6    O18       1.34039      .   S
    Zr12   O18       1.34039      .   S
    Zr7    O19       1.33946      .   S
    Zr15   O19       1.33946      .   S
    Zr11   O20       1.33970      .   S
    Zr3    O20       1.33970      .   S
    Zr8    O21       1.34039      .   S
    Zr2    O21       1.34039      .   S
    Zr1    O22       1.34007      .   S
    Zr9    O22       1.34007      .   S
    Zr2    O23       1.33977      .   S
    Zr10   O23       1.33977      .   S
    C32    O33       1.19802      .   S
    Zr2    O33       2.21421      .   S
    C32    O34       1.19776      .   S
    Zr1    O34       2.21429      .   S
    C35    O36       1.19779      .   S
    Zr3    O36       2.21376      .   S
    C35    O37       1.19793      .   S
    Zr0    O37       2.21405      .   S
    C38    O39       1.19726      .   S
    Zr0    O39       2.21329      .   S
    C38    O40       1.19898      .   S
    Zr2    O40       2.21265      .   S
    C41    O42       1.19815  1_455   S
    Zr1    O42       2.21454      .   S
    C41    O43       1.19805      .   S
    Zr3    O43       2.21411      .   S
    C44    O45       1.19797      .   S
    Zr5    O45       2.21411      .   S
    C44    O46       1.19805      .   S
    Zr6    O46       2.21433      .   S
    C47    O48       1.19815  1_655   S
    Zr5    O48       2.21455      .   S
    C47    O49       1.19794      .   S
    Zr7    O49       2.21393      .   S
    C50    O51       1.19800      .   S
    Zr7    O51       2.21405      .   S
    C50    O52       1.19796      .   S
    Zr4    O52       2.21415      .   S
    C53    O54       1.19821      .   S
    Zr6    O54       2.21460      .   S
    C53    O55       1.19777      .   S
    Zr4    O55       2.21427      .   S
    C38    O56       1.16033      .   S
    N29    O56       2.87515  1_554   S
    C38    O57       1.16082      .   S
    N31    O57       2.87528  1_565   S
    C41    O58       1.16027  1_455   S
    N26    O58       2.87471      .   S
    C41    O59       1.16033      .   S
    N25    O59       2.87489      .   S
    C35    O60       1.16023      .   S
    N24    O60       2.87441  1_554   S
    C35    O61       1.16029      .   S
    N30    O61       2.87478  1_655   S
    C47    O62       1.16034      .   S
    N26    O62       2.87483      .   S
    C47    O63       1.16034  1_655   S
    N25    O63       2.87486      .   S
    C50    O64       1.16032      .   S
    N24    O64       2.87496  1_455   S
    C50    O65       1.16024      .   S
    N30    O65       2.87422  1_556   S
    N27    O66       2.87461  1_545   S
    C44    O66       1.16019      .   S
    N27    O67       2.87486  1_455   S
    C32    O67       1.16027      .   S
    N29    O68       2.87464  1_545   S
    C53    O68       1.16017      .   S
    C53    O69       1.16026      .   S
    N31    O69       2.87475  1_556   S
    N28    O70       2.87483  1_655   S
    C44    O70       1.16027      .   S
    N28    O71       2.87465  1_565   S
    C32    O71       1.16011      .   S
