# CIF file generated by openbabel 2.4.90, see http://openbabel.sf.net
data_I
_chemical_name_common ''
_cell_length_a 13.215
_cell_length_b 17.408
_cell_length_c 17.409
_cell_angle_alpha 81.734
_cell_angle_beta 67.678
_cell_angle_gamma 67.69
_space_group_name_H-M_alt 'P 1'
_space_group_name_Hall 'P 1'
loop_
    _symmetry_equiv_pos_as_xyz
    x,y,z
loop_
    _atom_site_label
    _atom_site_type_symbol
    _atom_site_fract_x
    _atom_site_fract_y
    _atom_site_fract_z
    _atom_site_occupancy
    Zr0     Zr   0.36256   0.24984   0.77479   1.000
    Zr1     Zr   0.88730   0.25008   0.72528   1.000
    Zr2     Zr   0.63736   0.22527   0.75014   1.000
    Zr3     Zr   0.11274   0.27477   0.74989   1.000
    Zr4     Zr   0.63743   0.75017   0.22520   1.000
    Zr5     Zr   0.11266   0.74990   0.27476   1.000
    Zr6     Zr   0.36259   0.77475   0.24988   1.000
    Zr7     Zr   0.88722   0.72520   0.25016   1.000
    Zr8     Zr   0.49995   0.32941   0.67066   1.000
    Zr9     Zr   0.99999   0.17064   0.82942   1.000
    Zr10    Zr   0.67047   0.32955   0.82952   1.000
    Zr11    Zr   0.32951   0.17051   0.67040   1.000
    Zr12    Zr   0.50002   0.67059   0.32934   1.000
    Zr13    Zr   0.99997   0.82936   0.17063   1.000
    Zr14    Zr   0.32947   0.67048   0.17052   1.000
    Zr15    Zr   0.67046   0.82947   0.32955   1.000
    O16     O    0.22107   0.71019   0.22264   1.000
    O17     O    0.05632   0.78963   0.22270   1.000
    O18     O    0.43130   0.72267   0.28961   1.000
    O19     O    0.77884   0.77733   0.28986   1.000
    O20     O    0.22113   0.22264   0.71015   1.000
    O21     O    0.56866   0.27734   0.71040   1.000
    O22     O    0.94364   0.21036   0.77735   1.000
    O23     O    0.65391   0.27741   0.78983   1.000
    N24     N    0.22393   0.45126   0.04854   1.000
    N25     N    0.17525   0.54866   0.54857   1.000
    N26     N    0.82471   0.45132   0.45148   1.000
    N27     N    0.22392   0.04855   0.45128   1.000
    N28     N    0.77599   0.95147   0.54875   1.000
    N29     N    0.22748   0.04857   0.04868   1.000
    N30     N    0.77607   0.54873   0.95145   1.000
    N31     N    0.77252   0.95143   0.95132   1.000
    C32     C    0.89290   0.10715   0.60715   1.000
    O33     O    0.98655   0.06553   0.55487   1.000
    O34     O    0.79148   0.09715   0.61070   1.000
    O35     O    0.80293   0.14852   0.65721   1.000
    O36     O    0.00087   0.11062   0.59706   1.000
    O37     O    0.89305   0.05490   0.56558   1.000
    O38     O    0.89146   0.15719   0.64849   1.000
    C39     C    0.10705   0.39286   0.89286   1.000
    O40     O    0.20847   0.38931   0.90287   1.000
    O41     O    0.10852   0.35152   0.84280   1.000
    O42     O    0.01341   0.44515   0.93448   1.000
    O43     O    0.19702   0.34278   0.85152   1.000
    O44     O    0.10690   0.43444   0.94511   1.000
    O45     O    0.99909   0.40295   0.88939   1.000
    C46     C    0.49994   0.10710   0.89280   1.000
    O47     O    0.45133   0.15709   0.85150   1.000
    O48     O    0.54855   0.14848   0.84268   1.000
    O49     O    0.55203   0.05487   0.93443   1.000
    O50     O    0.44791   0.06549   0.94510   1.000
    O51     O    0.38853   0.11057   0.90290   1.000
    O52     O    0.61136   0.09710   0.88934   1.000
    C53     C    0.00003   0.39290   0.60711   1.000
    O54     O    0.90213   0.38938   0.59712   1.000
    O55     O    0.96007   0.34289   0.64849   1.000
    O56     O    0.09793   0.40295   0.61057   1.000
    O57     O    0.04143   0.44514   0.56551   1.000
    O58     O    0.95858   0.43448   0.55489   1.000
    O59     O    0.04000   0.35154   0.65711   1.000
    C60     C    0.10702   0.89286   0.39289   1.000
    O61     O    0.20844   0.90287   0.38933   1.000
    O62     O    0.10847   0.84281   0.35153   1.000
    O63     O    0.10688   0.94511   0.43446   1.000
    O64     O    0.01338   0.93448   0.44517   1.000
    O65     O    0.19701   0.85150   0.34281   1.000
    O66     O    0.99906   0.88938   0.40298   1.000
    C67     C    0.99992   0.60708   0.39293   1.000
    O68     O    0.04137   0.56550   0.44515   1.000
    O69     O    0.90202   0.59703   0.38946   1.000
    O70     O    0.09783   0.61060   0.40292   1.000
    O71     O    0.95852   0.55484   0.43454   1.000
    O72     O    0.03988   0.65710   0.35155   1.000
    O73     O    0.95996   0.64843   0.34293   1.000
    C74     C    0.89293   0.60714   0.10712   1.000
    O75     O    0.89146   0.64848   0.15719   1.000
    O76     O    0.89308   0.56556   0.05487   1.000
    O77     O    0.79152   0.61070   0.09709   1.000
    O78     O    0.98657   0.55485   0.06551   1.000
    O79     O    0.00089   0.59704   0.11061   1.000
    O80     O    0.80297   0.65721   0.14848   1.000
    C81     C    0.50004   0.89291   0.10707   1.000
    O82     O    0.45142   0.85154   0.15708   1.000
    O83     O    0.54865   0.84292   0.14841   1.000
    O84     O    0.44796   0.94514   0.06550   1.000
    O85     O    0.55208   0.93451   0.05483   1.000
    O86     O    0.38863   0.90291   0.11059   1.000
    O87     O    0.61145   0.88945   0.09703   1.000
loop_
    _geom_bond_atom_site_label_1
    _geom_bond_atom_site_label_2
    _geom_bond_distance
    _geom_bond_site_symmetry_2
    _ccdc_geom_bond_type
    Zr14   O16       1.33962      .   S
    Zr5    O16       1.33962      .   S
    Zr13   O17       1.34003  1_655   S
    Zr5    O17       1.34003      .   S
    Zr6    O18       1.34039      .   S
    Zr12   O18       1.34039      .   S
    Zr7    O19       1.33946      .   S
    Zr15   O19       1.33946      .   S
    Zr11   O20       1.33970      .   S
    Zr3    O20       1.33970      .   S
    Zr8    O21       1.34039      .   S
    Zr2    O21       1.34039      .   S
    Zr1    O22       1.34007      .   S
    Zr9    O22       1.34007      .   S
    Zr2    O23       1.33977      .   S
    Zr10   O23       1.33977      .   S
    C32    O33       1.24018      .   S
    N27    O33       2.88654  1_455   S
    C32    O34       1.39339      .   S
    N28    O34       2.99733  1_565   S
    C32    O35       1.19802      .   S
    Zr2    O35       2.21421      .   S
    C32    O36       1.39366  1_655   S
    N27    O36       2.99757      .   S
    C32    O37       1.24009      .   S
    N28    O37       2.88633  1_565   S
    C32    O38       1.19776      .   S
    Zr1    O38       2.21429      .   S
    C39    O40       1.39351      .   S
    N24    O40       2.99706  1_554   S
    C39    O41       1.19779      .   S
    Zr3    O41       2.21376      .   S
    C39    O42       1.24022      .   S
    N30    O42       2.88643  1_655   S
    C39    O43       1.19793      .   S
    Zr0    O43       2.21405      .   S
    C39    O44       1.24019      .   S
    N24    O44       2.88612  1_554   S
    C39    O45       1.39365  1_455   S
    N30    O45       2.99751      .   S
    C46    O47       1.19726      .   S
    Zr0    O47       2.21329      .   S
    C46    O48       1.19898      .   S
    Zr2    O48       2.21265      .   S
    C46    O49       1.24096      .   S
    N31    O49       2.88681  1_565   S
    C46    O50       1.24069      .   S
    N29    O50       2.88661  1_554   S
    C46    O51       1.39327      .   S
    N29    O51       2.99805  1_554   S
    C46    O52       1.39384      .   S
    N31    O52       2.99809  1_565   S
    C53    O54       1.39354  1_455   S
    N26    O54       2.99746      .   S
    C53    O55       1.19815  1_455   S
    Zr1    O55       2.21454      .   S
    C53    O56       1.39360      .   S
    N25    O56       2.99759      .   S
    C53    O57       1.24027      .   S
    N25    O57       2.88654      .   S
    C53    O58       1.24027  1_455   S
    N26    O58       2.88634      .   S
    C53    O59       1.19805      .   S
    Zr3    O59       2.21411      .   S
    C60    O61       1.39343      .   S
    N27    O61       2.99732  1_545   S
    C60    O62       1.19797      .   S
    Zr5    O62       2.21411      .   S
    C60    O63       1.24022      .   S
    N27    O63       2.88626  1_545   S
    C60    O64       1.24026      .   S
    N28    O64       2.88651  1_655   S
    C60    O65       1.19805      .   S
    Zr6    O65       2.21433      .   S
    C60    O66       1.39358  1_455   S
    N28    O66       2.99752      .   S
    C67    O68       1.24034  1_655   S
    N25    O68       2.88648      .   S
    C67    O69       1.39364      .   S
    N26    O69       2.99758      .   S
    C67    O70       1.39360  1_655   S
    N25    O70       2.99761      .   S
    C67    O71       1.24030      .   S
    N26    O71       2.88646      .   S
    C67    O72       1.19815  1_655   S
    Zr5    O72       2.21455      .   S
    C67    O73       1.19794      .   S
    Zr7    O73       2.21393      .   S
    C74    O75       1.19800      .   S
    Zr7    O75       2.21405      .   S
    C74    O76       1.24016      .   S
    N30    O76       2.88602  1_556   S
    C74    O77       1.39351      .   S
    N30    O77       2.99680  1_556   S
    C74    O78       1.24018      .   S
    N24    O78       2.88668  1_455   S
    C74    O79       1.39373  1_655   S
    N24    O79       2.99761      .   S
    C74    O80       1.19796      .   S
    Zr4    O80       2.21415      .   S
    C81    O82       1.19821      .   S
    Zr6    O82       2.21460      .   S
    C81    O83       1.19777      .   S
    Zr4    O83       2.21427      .   S
    C81    O84       1.24016      .   S
    N29    O84       2.88627  1_545   S
    C81    O85       1.24019      .   S
    N31    O85       2.88638  1_556   S
    C81    O86       1.39346      .   S
    N29    O86       2.99738  1_545   S
    C81    O87       1.39358      .   S
    N31    O87       2.99748  1_556   S
