# CIF file generated by openbabel 2.4.90, see http://openbabel.sf.net
data_I
_chemical_name_common 'VESTA_phase_1'
_cell_length_a 21.592
_cell_length_b 12.585
_cell_length_c 17.174
_cell_angle_alpha 89.958
_cell_angle_beta 95.414
_cell_angle_gamma 90.039
_space_group_name_H-M_alt 'P 1'
_space_group_name_Hall 'P 1'
loop_
    _symmetry_equiv_pos_as_xyz
    x,y,z
loop_
    _atom_site_label
    _atom_site_type_symbol
    _atom_site_fract_x
    _atom_site_fract_y
    _atom_site_fract_z
    _atom_site_occupancy
    Zn0     Zn   0.13534   0.26437   0.39733   1.000
    Zn1     Zn   0.63511   0.26416   0.39984   1.000
    Zn2     Zn   0.39469   0.25983   0.54035   1.000
    Zn3     Zn   0.89584   0.25947   0.54266   1.000
    Zn4     Zn   0.11473   0.76443   0.10024   1.000
    Zn5     Zn   0.61367   0.76429   0.10247   1.000
    Zn6     Zn   0.35466   0.75972   0.95696   1.000
    Zn7     Zn   0.85375   0.75945   0.95972   1.000
    Zn8     Zn   0.36486   0.73584   0.60013   1.000
    Zn9     Zn   0.86463   0.73562   0.60263   1.000
    Zn10    Zn   0.10413   0.74053   0.45700   1.000
    Zn11    Zn   0.60528   0.74017   0.45962   1.000
    Zn12    Zn   0.38630   0.23570   0.89749   1.000
    Zn13    Zn   0.88524   0.23557   0.89972   1.000
    Zn14    Zn   0.14622   0.24055   0.04025   1.000
    Zn15    Zn   0.64531   0.24028   0.04302   1.000
    H16     H    0.46607   0.36343   0.79407   1.000
    H17     H    0.96632   0.36349   0.79589   1.000
    H18     H    0.49763   0.32115   0.70728   1.000
    H19     H    0.99761   0.32126   0.70886   1.000
    H20     H    0.43855   0.41951   0.70254   1.000
    H21     H    0.93845   0.41943   0.70443   1.000
    H22     H    0.25833   0.05309   0.64303   1.000
    H23     H    0.75917   0.05199   0.64410   1.000
    H24     H    0.32430   0.01363   0.59654   1.000
    H25     H    0.82537   0.01376   0.59755   1.000
    H26     H    0.25643   0.32708   0.33193   1.000
    H27     H    0.75660   0.32755   0.33370   1.000
    H28     H    0.32159   0.37107   0.39559   1.000
    H29     H    0.82210   0.37145   0.39693   1.000
    H30     H    0.32784   0.25476   0.33953   1.000
    H31     H    0.82789   0.25493   0.34098   1.000
    H32     H    0.48540   0.01455   0.31800   1.000
    H33     H    0.98447   0.01577   0.31695   1.000
    H34     H    0.04912   0.09446   0.29340   1.000
    H35     H    0.54992   0.09364   0.29475   1.000
    H36     H    0.05997   0.99069   0.36378   1.000
    H37     H    0.56085   0.99003   0.36527   1.000
    H38     H    0.01731   0.37403   0.57496   1.000
    H39     H    0.51583   0.37382   0.57530   1.000
    H40     H    0.08838   0.30172   0.58688   1.000
    H41     H    0.58687   0.30166   0.58859   1.000
    H42     H    0.19132   0.61950   0.36118   1.000
    H43     H    0.69141   0.61846   0.36304   1.000
    H44     H    0.23613   0.50817   0.39583   1.000
    H45     H    0.73627   0.50738   0.39817   1.000
    H46     H    0.17812   0.49271   0.31611   1.000
    H47     H    0.67826   0.49133   0.31852   1.000
    H48     H    0.28421   0.86328   0.70346   1.000
    H49     H    0.78366   0.86385   0.70575   1.000
    H50     H    0.25289   0.82139   0.79060   1.000
    H51     H    0.75187   0.82134   0.79242   1.000
    H52     H    0.31204   0.91974   0.79472   1.000
    H53     H    0.81111   0.91955   0.79740   1.000
    H54     H    0.49176   0.55336   0.85586   1.000
    H55     H    0.98984   0.55137   0.85777   1.000
    H56     H    0.42549   0.51389   0.90182   1.000
    H57     H    0.92364   0.51339   0.90452   1.000
    H58     H    0.49233   0.82670   0.16678   1.000
    H59     H    0.99389   0.82861   0.16701   1.000
    H60     H    0.42689   0.86993   0.10326   1.000
    H61     H    0.92822   0.87218   0.10402   1.000
    H62     H    0.42124   0.75331   0.15931   1.000
    H63     H    0.92250   0.75619   0.16071   1.000
    H64     H    0.26553   0.51648   0.18200   1.000
    H65     H    0.76393   0.51552   0.18405   1.000
    H66     H    0.20076   0.59485   0.20523   1.000
    H67     H    0.69906   0.59388   0.20695   1.000
    H68     H    0.19010   0.49063   0.13526   1.000
    H69     H    0.68866   0.48999   0.13670   1.000
    H70     H    0.23328   0.87418   0.92348   1.000
    H71     H    0.73261   0.87390   0.92583   1.000
    H72     H    0.16211   0.80207   0.91113   1.000
    H73     H    0.66144   0.80180   0.91335   1.000
    H74     H    0.05900   0.11934   0.13668   1.000
    H75     H    0.55747   0.11892   0.13809   1.000
    H76     H    0.01432   0.00755   0.10253   1.000
    H77     H    0.51293   0.00727   0.10332   1.000
    H78     H    0.07256   0.99278   0.18206   1.000
    H79     H    0.57068   0.99221   0.18336   1.000
    H80     H    0.03366   0.63651   0.20400   1.000
    H81     H    0.53390   0.63656   0.20589   1.000
    H82     H    0.00236   0.67874   0.29109   1.000
    H83     H    0.50233   0.67884   0.29268   1.000
    H84     H    0.06152   0.58057   0.29552   1.000
    H85     H    0.56142   0.58047   0.29741   1.000
    H86     H    0.24081   0.94799   0.35585   1.000
    H87     H    0.74164   0.94690   0.35692   1.000
    H88     H    0.17461   0.98624   0.40241   1.000
    H89     H    0.67567   0.98635   0.40342   1.000
    H90     H    0.24336   0.67244   0.66619   1.000
    H91     H    0.74355   0.67292   0.66803   1.000
    H92     H    0.17786   0.62855   0.60302   1.000
    H93     H    0.67838   0.62893   0.60437   1.000
    H94     H    0.17207   0.74507   0.65897   1.000
    H95     H    0.67213   0.74525   0.66043   1.000
    H96     H    0.01551   0.98421   0.68301   1.000
    H97     H    0.51457   0.98544   0.68187   1.000
    H98     H    0.45005   0.90635   0.70522   1.000
    H99     H    0.95086   0.90553   0.70656   1.000
    H100    H    0.43912   0.00000   0.63470   1.000
    H101    H    0.94001   0.00000   0.63618   1.000
    H102    H    0.48414   0.62617   0.42465   1.000
    H103    H    0.98266   0.62597   0.42499   1.000
    H104    H    0.41310   0.69834   0.41137   1.000
    H105    H    0.91159   0.69829   0.41308   1.000
    H106    H    0.30855   0.38154   0.63693   1.000
    H107    H    0.80865   0.38049   0.63877   1.000
    H108    H    0.26370   0.49262   0.60180   1.000
    H109    H    0.76384   0.49183   0.60413   1.000
    H110    H    0.32171   0.50867   0.68145   1.000
    H111    H    0.82186   0.50728   0.68385   1.000
    H112    H    0.21631   0.13615   0.29422   1.000
    H113    H    0.71576   0.13672   0.29650   1.000
    H114    H    0.24810   0.17866   0.20755   1.000
    H115    H    0.74707   0.17861   0.20937   1.000
    H116    H    0.18886   0.08045   0.20257   1.000
    H117    H    0.68793   0.08026   0.20525   1.000
    H118    H    0.01013   0.44863   0.14219   1.000
    H119    H    0.50820   0.44662   0.14411   1.000
    H120    H    0.07633   0.48661   0.09544   1.000
    H121    H    0.57446   0.48610   0.09814   1.000
    H122    H    0.00608   0.17139   0.83290   1.000
    H123    H    0.50764   0.17329   0.83319   1.000
    H124    H    0.07175   0.12781   0.89595   1.000
    H125    H    0.57309   0.13006   0.89671   1.000
    H126    H    0.07748   0.24381   0.83925   1.000
    H127    H    0.57874   0.24668   0.84066   1.000
    H128    H    0.23604   0.48448   0.81592   1.000
    H129    H    0.73444   0.48351   0.81790   1.000
    H130    H    0.30091   0.40613   0.79302   1.000
    H131    H    0.79921   0.40514   0.79473   1.000
    H132    H    0.31130   0.51002   0.86320   1.000
    H133    H    0.80987   0.50936   0.86470   1.000
    H134    H    0.26736   0.12610   0.07413   1.000
    H135    H    0.76669   0.12582   0.07648   1.000
    H136    H    0.33854   0.19820   0.08661   1.000
    H137    H    0.83786   0.19793   0.08883   1.000
    H138    H    0.44250   0.88107   0.86180   1.000
    H139    H    0.94097   0.88065   0.86329   1.000
    H140    H    0.48705   0.99271   0.89664   1.000
    H141    H    0.98565   0.99245   0.89743   1.000
    H142    H    0.42930   0.00779   0.81660   1.000
    H143    H    0.92741   0.00722   0.81790   1.000
    C144    C    0.45472   0.34558   0.73194   1.000
    C145    C    0.95479   0.34558   0.73380   1.000
    C146    C    0.40667   0.26070   0.72229   1.000
    C147    C    0.90680   0.26059   0.72431   1.000
    C148    C    0.33827   0.14853   0.67262   1.000
    C149    C    0.83870   0.14817   0.67422   1.000
    C150    C    0.29812   0.08341   0.61450   1.000
    C151    C    0.79890   0.08302   0.61579   1.000
    C152    C    0.27442   0.14221   0.54189   1.000
    C153    C    0.77508   0.14231   0.54345   1.000
    C154    C    0.27436   0.23569   0.43683   1.000
    C155    C    0.77482   0.23635   0.43868   1.000
    C156    C    0.29576   0.30096   0.37231   1.000
    C157    C    0.79605   0.30141   0.37394   1.000
    C158    C    0.02795   0.05358   0.34079   1.000
    C159    C    0.52874   0.05265   0.34207   1.000
    C160    C    0.01487   0.12947   0.40345   1.000
    C161    C    0.51520   0.12857   0.40449   1.000
    C162    C    0.02655   0.25304   0.49020   1.000
    C163    C    0.52605   0.25255   0.49106   1.000
    C164    C    0.05390   0.33844   0.54337   1.000
    C165    C    0.55283   0.33822   0.54446   1.000
    C166    C    0.08446   0.42624   0.50232   1.000
    C167    C    0.58390   0.42604   0.50400   1.000
    C168    C    0.14273   0.50900   0.42750   1.000
    C169    C    0.64282   0.50844   0.42976   1.000
    C170    C    0.18951   0.53385   0.37198   1.000
    C171    C    0.68964   0.53290   0.37423   1.000
    C172    C    0.29572   0.84570   0.76561   1.000
    C173    C    0.79486   0.84577   0.76787   1.000
    C174    C    0.34373   0.76084   0.77537   1.000
    C175    C    0.84275   0.76073   0.77766   1.000
    C176    C    0.41197   0.64878   0.82558   1.000
    C177    C    0.91055   0.64794   0.82778   1.000
    C178    C    0.45183   0.58368   0.88404   1.000
    C179    C    0.95021   0.58254   0.88614   1.000
    C180    C    0.47519   0.64239   0.95681   1.000
    C181    C    0.97426   0.64189   0.95826   1.000
    C182    C    0.47469   0.73540   0.06190   1.000
    C183    C    0.97507   0.73658   0.06268   1.000
    C184    C    0.45306   0.80014   0.12646   1.000
    C185    C    0.95424   0.80225   0.12724   1.000
    C186    C    0.22199   0.55386   0.15800   1.000
    C187    C    0.72050   0.55306   0.15982   1.000
    C188    C    0.23504   0.62954   0.09511   1.000
    C189    C    0.73387   0.62898   0.09722   1.000
    C190    C    0.22360   0.75302   0.00811   1.000
    C191    C    0.72274   0.75275   0.01045   1.000
    C192    C    0.19651   0.83858   0.95483   1.000
    C193    C    0.69579   0.83835   0.95711   1.000
    C194    C    0.16593   0.92639   0.99572   1.000
    C195    C    0.66511   0.92616   0.99787   1.000
    C196    C    0.10761   0.00899   0.07045   1.000
    C197    C    0.60647   0.00869   0.07221   1.000
    C198    C    0.06094   0.03367   0.12609   1.000
    C199    C    0.55944   0.03328   0.12739   1.000
    C200    C    0.04518   0.65442   0.26614   1.000
    C201    C    0.54525   0.65440   0.26801   1.000
    C202    C    0.09317   0.73942   0.27565   1.000
    C203    C    0.59330   0.73929   0.27760   1.000
    C204    C    0.16128   0.85183   0.32574   1.000
    C205    C    0.66170   0.85146   0.32734   1.000
    C206    C    0.20108   0.91697   0.38416   1.000
    C207    C    0.70185   0.91658   0.38546   1.000
    C208    C    0.22490   0.85768   0.45651   1.000
    C209    C    0.72555   0.85777   0.45807   1.000
    C210    C    0.22515   0.76364   0.56128   1.000
    C211    C    0.72561   0.76430   0.56313   1.000
    C212    C    0.20391   0.69859   0.62601   1.000
    C213    C    0.70422   0.69904   0.62765   1.000
    C214    C    0.47123   0.94735   0.65790   1.000
    C215    C    0.97203   0.94641   0.65910   1.000
    C216    C    0.48477   0.87142   0.59548   1.000
    C217    C    0.98510   0.87052   0.59651   1.000
    C218    C    0.47392   0.74744   0.50890   1.000
    C219    C    0.97341   0.74695   0.50975   1.000
    C220    C    0.44714   0.66178   0.45550   1.000
    C221    C    0.94607   0.66156   0.45658   1.000
    C222    C    0.41607   0.57396   0.49597   1.000
    C223    C    0.91551   0.57376   0.49763   1.000
    C224    C    0.35715   0.49156   0.57021   1.000
    C225    C    0.85723   0.49100   0.57240   1.000
    C226    C    0.31033   0.46710   0.62574   1.000
    C227    C    0.81046   0.46614   0.62797   1.000
    C228    C    0.20511   0.15423   0.23210   1.000
    C229    C    0.70424   0.15430   0.23436   1.000
    C230    C    0.15722   0.23927   0.22231   1.000
    C231    C    0.65624   0.23916   0.22460   1.000
    C232    C    0.08942   0.35206   0.17219   1.000
    C233    C    0.58799   0.35121   0.17438   1.000
    C234    C    0.04976   0.41746   0.11383   1.000
    C235    C    0.54813   0.41631   0.11593   1.000
    C236    C    0.02571   0.35811   0.04170   1.000
    C237    C    0.52477   0.35759   0.04316   1.000
    C238    C    0.02490   0.26341   0.93728   1.000
    C239    C    0.52528   0.26458   0.93806   1.000
    C240    C    0.04573   0.19774   0.87273   1.000
    C241    C    0.54692   0.19985   0.87351   1.000
    C242    C    0.27946   0.44695   0.84014   1.000
    C243    C    0.77798   0.44613   0.84190   1.000
    C244    C    0.26610   0.37102   0.90274   1.000
    C245    C    0.76493   0.37045   0.90485   1.000
    C246    C    0.27723   0.24725   0.98950   1.000
    C247    C    0.77637   0.24697   0.99185   1.000
    C248    C    0.30419   0.16164   0.04285   1.000
    C249    C    0.80346   0.16141   0.04513   1.000
    C250    C    0.33487   0.07384   0.00209   1.000
    C251    C    0.83405   0.07361   0.00425   1.000
    C252    C    0.39350   0.99130   0.92775   1.000
    C253    C    0.89236   0.99101   0.92950   1.000
    C254    C    0.44053   0.96671   0.87257   1.000
    C255    C    0.93903   0.96632   0.87387   1.000
    N256    N    0.05695   0.20355   0.43497   1.000
    N257    N    0.55705   0.20254   0.43666   1.000
    N258    N    0.46157   0.13163   0.43638   1.000
    N259    N    0.96167   0.13213   0.43639   1.000
    N260    N    0.46891   0.21136   0.49206   1.000
    N261    N    0.96952   0.21165   0.49223   1.000
    N262    N    0.12625   0.40963   0.44813   1.000
    N263    N    0.62582   0.40924   0.45004   1.000
    N264    N    0.07488   0.52845   0.51550   1.000
    N265    N    0.57476   0.52830   0.51749   1.000
    N266    N    0.11225   0.58147   0.46687   1.000
    N267    N    0.61256   0.58108   0.46923   1.000
    N268    N    0.21581   0.20283   0.44355   1.000
    N269    N    0.71625   0.20349   0.44548   1.000
    N270    N    0.21556   0.14279   0.51148   1.000
    N271    N    0.71617   0.14303   0.51325   1.000
    N272    N    0.31266   0.19874   0.49768   1.000
    N273    N    0.81327   0.19915   0.49936   1.000
    N274    N    0.38288   0.21922   0.65285   1.000
    N275    N    0.88362   0.21846   0.65480   1.000
    N276    N    0.33471   0.14395   0.74935   1.000
    N277    N    0.83441   0.14435   0.75082   1.000
    N278    N    0.37878   0.21609   0.78097   1.000
    N279    N    0.87830   0.21665   0.78276   1.000
    N280    N    0.19299   0.70334   0.06315   1.000
    N281    N    0.69200   0.70306   0.06532   1.000
    N282    N    0.28837   0.63244   0.06253   1.000
    N283    N    0.78728   0.63172   0.06479   1.000
    N284    N    0.28067   0.71188   0.00656   1.000
    N285    N    0.77978   0.71137   0.00897   1.000
    N286    N    0.12408   0.90971   0.04984   1.000
    N287    N    0.62301   0.90943   0.05168   1.000
    N288    N    0.17555   0.02861   0.98251   1.000
    N289    N    0.67483   0.02840   0.98481   1.000
    N290    N    0.13814   0.08153   0.03106   1.000
    N291    N    0.63720   0.08128   0.03313   1.000
    N292    N    0.03356   0.70364   0.05553   1.000
    N293    N    0.53332   0.70263   0.05571   1.000
    N294    N    0.03329   0.64280   0.98799   1.000
    N295    N    0.53392   0.64287   0.98773   1.000
    N296    N    0.43669   0.69874   0.00000   1.000
    N297    N    0.93633   0.69897   0.00000   1.000
    N298    N    0.36710   0.71910   0.84494   1.000
    N299    N    0.86584   0.71852   0.84721   1.000
    N300    N    0.41602   0.64460   0.74894   1.000
    N301    N    0.91483   0.64408   0.75119   1.000
    N302    N    0.37206   0.71668   0.71696   1.000
    N303    N    0.87117   0.71665   0.71925   1.000
    N304    N    0.44292   0.79746   0.56330   1.000
    N305    N    0.94302   0.79644   0.56499   1.000
    N306    N    0.03830   0.86787   0.56356   1.000
    N307    N    0.53839   0.86837   0.56359   1.000
    N308    N    0.03045   0.78834   0.50772   1.000
    N309    N    0.53106   0.78864   0.50791   1.000
    N310    N    0.37415   0.59076   0.54993   1.000
    N311    N    0.87372   0.59037   0.55183   1.000
    N312    N    0.42521   0.47170   0.48247   1.000
    N313    N    0.92508   0.47155   0.48444   1.000
    N314    N    0.38741   0.41891   0.53073   1.000
    N315    N    0.88772   0.41853   0.53308   1.000
    N316    N    0.28372   0.79650   0.55448   1.000
    N317    N    0.78416   0.79716   0.55641   1.000
    N318    N    0.28381   0.85695   0.48670   1.000
    N319    N    0.78441   0.85720   0.48847   1.000
    N320    N    0.18671   0.80085   0.50060   1.000
    N321    N    0.68732   0.80125   0.50228   1.000
    N322    N    0.11635   0.78154   0.34516   1.000
    N323    N    0.61709   0.78077   0.34711   1.000
    N324    N    0.16556   0.85564   0.24913   1.000
    N325    N    0.66525   0.85604   0.25060   1.000
    N326    N    0.12168   0.78335   0.21719   1.000
    N327    N    0.62118   0.78390   0.21898   1.000
    N328    N    0.30797   0.29693   0.93464   1.000
    N329    N    0.80698   0.29666   0.93680   1.000
    N330    N    0.21269   0.36828   0.93518   1.000
    N331    N    0.71160   0.36756   0.93744   1.000
    N332    N    0.22020   0.28863   0.99100   1.000
    N333    N    0.71930   0.28812   0.99340   1.000
    N334    N    0.37696   0.09057   0.94828   1.000
    N335    N    0.87589   0.09029   0.95012   1.000
    N336    N    0.32515   0.97160   0.01515   1.000
    N337    N    0.82442   0.97139   0.01746   1.000
    N338    N    0.36277   0.91872   0.96683   1.000
    N339    N    0.86184   0.91847   0.96891   1.000
    N340    N    0.46666   0.29736   0.94425   1.000
    N341    N    0.96641   0.29635   0.94443   1.000
    N342    N    0.46605   0.35712   0.01223   1.000
    N343    N    0.96668   0.35719   0.01197   1.000
    N344    N    0.06364   0.30103   0.99752   1.000
    N345    N    0.56328   0.30125   0.99931   1.000
    N346    N    0.13413   0.28147   0.15276   1.000
    N347    N    0.63286   0.28090   0.15503   1.000
    N348    N    0.08513   0.35591   0.24877   1.000
    N349    N    0.58394   0.35540   0.25103   1.000
    N350    N    0.12880   0.28335   0.28072   1.000
    N351    N    0.62790   0.28331   0.28301   1.000
loop_
    _geom_bond_atom_site_label_1
    _geom_bond_atom_site_label_2
    _geom_bond_distance
    _geom_bond_site_symmetry_2
    _ccdc_geom_bond_type
    N296   C182      1.36085      .   S
    N296   C180      1.36465  1_554   S
    N296   Zn6       2.00646  1_554   S
    N297   C183      1.38310      .   S
    N297   C181      1.34644  1_554   S
    N297   Zn7       2.00139  1_554   S
    C250   N336      1.32587  1_545   S
    C250   C248      1.49654      .   S
    C250   N334      1.37195  1_554   S
    C251   N337      1.32573  1_545   S
    C251   C249      1.49657      .   S
    C251   N335      1.37199  1_554   S
    N284   C190      1.33959      .   S
    N284   N282      1.38557      .   S
    N284   Zn6       1.97367  1_554   S
    C190   N280      1.35563      .   S
    C190   C192      1.49574  1_554   S
    N285   C191      1.33983      .   S
    N285   N283      1.38547      .   S
    N285   Zn7       1.97118  1_554   S
    C191   N281      1.35510      .   S
    C191   C193      1.49580  1_554   S
    N343   C236      1.32767  1_655   S
    N343   N341      1.38987  1_554   S
    N342   C237      1.32778      .   S
    N342   N340      1.39033  1_554   S
    N336   N338      1.38577  1_554   S
    N337   N339      1.38563  1_554   S
    N290   Zn14      2.01384      .   S
    N290   C196      1.34453      .   S
    N290   N288      1.38562  1_554   S
    N291   Zn15      2.01441      .   S
    N291   C197      1.34441      .   S
    N291   N289      1.38576  1_554   S
    Zn14   N346      2.04055      .   S
    Zn14   N332      1.97116  1_554   S
    Zn14   N344      2.01282  1_554   S
    C236   C234      1.49713      .   S
    C236   N344      1.37160  1_554   S
    C248   H134      1.09580      .   S
    C248   H136      1.10511      .   S
    C248   C246      1.49591  1_554   S
    Zn15   N347      2.03303      .   S
    Zn15   N333      1.97383  1_554   S
    Zn15   N345      2.00977  1_554   S
    C237   C235      1.49806      .   S
    C237   N345      1.37151  1_554   S
    C249   H135      1.09575      .   S
    C249   H137      1.10504      .   S
    C249   C247      1.49574  1_554   S
    N286   C196      1.35573  1_565   S
    N286   Zn4       2.04034      .   S
    N286   C194      1.37191  1_554   S
    N287   C197      1.35554  1_565   S
    N287   Zn5       2.04162      .   S
    N287   C195      1.37199  1_554   S
    N292   C183      1.34603  1_455   S
    N292   Zn4       1.99792      .   S
    N292   N294      1.38986  1_554   S
    N293   C182      1.34538      .   S
    N293   Zn5       1.99832      .   S
    N293   N295      1.39034  1_554   S
    C182   C184      1.48688      .   S
    N282   C188      1.32742      .   S
    C183   C185      1.48684      .   S
    N280   C188      1.37637      .   S
    N280   Zn4       2.01434      .   S
    N283   C189      1.32753      .   S
    N281   C189      1.37621      .   S
    N281   Zn5       2.01676      .   S
    C196   C198      1.48580      .   S
    C197   C199      1.48581      .   S
    C188   C186      1.48619      .   S
    H120   C234      1.10427      .   S
    C189   C187      1.48616      .   S
    H121   C235      1.10449      .   S
    Zn4    N326      2.01423      .   S
    Zn5    N327      2.00758      .   S
    H76    C198      1.09906      .   S
    H60    C184      1.09871      .   S
    H77    C199      1.09914      .   S
    H61    C185      1.09867      .   S
    C234   H118      1.09656      .   S
    C234   C232      1.50111      .   S
    C235   H119      1.09667      .   S
    C235   C233      1.50214      .   S
    C198   H74       1.09497      .   S
    C198   H78       1.09806  1_545   S
    C184   H62       1.09991      .   S
    C184   H58       1.09519      .   S
    C185   H63       1.09982      .   S
    C185   H59       1.09503      .   S
    C199   H75       1.09496      .   S
    C199   H79       1.09796  1_545   S
    H68    C186      1.09944      .   S
    H69    C187      1.09945      .   S
    N346   C232      1.37649      .   S
    N346   C230      1.35808      .   S
    N347   C233      1.37633      .   S
    N347   C231      1.35790      .   S
    C186   H64       1.09642      .   S
    C186   H66       1.09786      .   S
    C187   H65       1.09638      .   S
    C187   H67       1.09784      .   S
    C232   N348      1.32805      .   S
    C233   N349      1.32859      .   S
    H116   C228      1.09954      .   S
    H80    C200      1.09624      .   S
    H117   C229      1.09965      .   S
    H81    C201      1.09526      .   S
    H114   C228      1.09879      .   S
    H115   C229      1.09880      .   S
    N326   N324      1.38850      .   S
    N326   C202      1.34459      .   S
    N327   N325      1.38807      .   S
    N327   C203      1.34325      .   S
    C230   C228      1.48707      .   S
    C230   N350      1.34458      .   S
    C231   C229      1.48710      .   S
    C231   N351      1.34407      .   S
    C228   H112      1.09519      .   S
    C229   H113      1.09514      .   S
    N348   N350      1.38812      .   S
    N324   C204      1.32846      .   S
    N325   C205      1.32859      .   S
    N349   N351      1.38840      .   S
    C200   C202      1.48712      .   S
    C200   H82       1.09879      .   S
    C200   H84       1.09959      .   S
    C201   C203      1.48703      .   S
    C201   H83       1.09877      .   S
    C201   H85       1.09954      .   S
    C202   N322      1.35807      .   S
    C203   N323      1.35881      .   S
    N350   Zn0       2.00838      .   S
    N351   Zn1       2.01210      .   S
    H34    C158      1.09786      .   S
    H35    C159      1.09774      .   S
    H46    C170      1.09783      .   S
    H33    C158      1.09667  1_655   S
    H32    C159      1.09683      .   S
    H47    C171      1.09803      .   S
    C204   N322      1.37633      .   S
    C204   C206      1.50165      .   S
    C205   N323      1.37640      .   S
    C205   C207      1.50216      .   S
    H26    C156      1.09503      .   S
    H27    C157      1.09571      .   S
    H30    C156      1.09984      .   S
    C158   H36       1.09957  1_545   S
    C158   C160      1.48636      .   S
    H31    C157      1.09990      .   S
    C159   H37       1.09942  1_545   S
    C159   C161      1.48613      .   S
    N322   Zn10      2.02959      .   S
    N323   Zn11      2.03741      .   S
    H86    C206      1.09661      .   S
    H87    C207      1.09667      .   S
    H42    C170      1.09496      .   S
    H43    C171      1.09498      .   S
    C170   H44       1.09923      .   S
    C170   C168      1.48587      .   S
    C156   H28       1.09875      .   S
    C156   C154      1.48681      .   S
    C157   H29       1.09871      .   S
    C157   C155      1.48692      .   S
    C171   H45       1.09914      .   S
    C171   C169      1.48578      .   S
    C206   H88       1.10442      .   S
    C206   C208      1.49792      .   S
    C207   H89       1.10447      .   S
    C207   C209      1.49776      .   S
    Zn0    N256      2.01822      .   S
    Zn0    N268      1.99731      .   S
    Zn0    N262      2.04370      .   S
    Zn1    N257      2.01017      .   S
    Zn1    N269      2.00213      .   S
    Zn1    N263      2.03784      .   S
    C160   N256      1.37632      .   S
    C160   N259      1.32801  1_455   S
    C161   N258      1.32737      .   S
    C161   N257      1.37610      .   S
    H104   C220      1.10511      .   S
    H105   C221      1.10504      .   S
    H102   C220      1.09563      .   S
    H103   C221      1.09583      .   S
    C168   N262      1.35594      .   S
    C168   N266      1.34459      .   S
    C169   N263      1.35550      .   S
    C169   N267      1.34438      .   S
    N256   C162      1.35547      .   S
    N258   N260      1.38527      .   S
    N259   N261      1.38586      .   S
    N257   C163      1.35518      .   S
    C154   N268      1.34515      .   S
    C154   N272      1.35235      .   S
    C155   N269      1.34586      .   S
    C155   N273      1.35305      .   S
    N268   N270      1.38995      .   S
    N269   N271      1.39016      .   S
    N262   C166      1.37224      .   S
    N263   C167      1.37172      .   S
    C220   C222      1.49684      .   S
    C220   C218      1.49610      .   S
    C208   N318      1.32760      .   S
    C208   N320      1.37148      .   S
    C221   C223      1.49638      .   S
    C221   C219      1.49538      .   S
    Zn10   N266      2.01520      .   S
    Zn10   N320      2.01575      .   S
    Zn10   N308      1.97874      .   S
    C209   N319      1.32758      .   S
    C209   N321      1.37144      .   S
    Zn11   N267      2.01377      .   S
    Zn11   N321      2.00480      .   S
    Zn11   N309      1.97005      .   S
    N266   N264      1.38538      .   S
    N267   N265      1.38580      .   S
    N312   C222      1.32603      .   S
    N312   N314      1.38579      .   S
    N313   C223      1.32589      .   S
    N313   N315      1.38548      .   S
    N318   N316      1.39031      .   S
    N319   N317      1.39005      .   S
    C162   N261      1.34029  1_455   S
    C162   C164      1.49540      .   S
    C163   N260      1.33948      .   S
    C163   C165      1.49610      .   S
    N260   Zn2       1.96999      .   S
    N261   Zn3       1.97612      .   S
    C222   N310      1.37170      .   S
    C223   N311      1.37229      .   S
    N272   Zn2       2.00481      .   S
    N272   C152      1.37148      .   S
    N273   Zn3       2.01426      .   S
    N273   C153      1.37145      .   S
    N320   C210      1.35301      .   S
    N321   C211      1.35234      .   S
    C166   N264      1.32587      .   S
    C166   C164      1.49637      .   S
    C167   N265      1.32601      .   S
    C167   C165      1.49675      .   S
    N308   C219      1.34029  1_455   S
    N308   N306      1.38585      .   S
    N309   C218      1.33945      .   S
    N309   N307      1.38527      .   S
    C218   N304      1.35516      .   S
    C219   N305      1.35552      .   S
    N270   C152      1.32761      .   S
    N271   C153      1.32767      .   S
    N314   Zn2       2.01377      .   S
    N314   C224      1.34446      .   S
    N315   Zn3       2.01484      .   S
    N315   C225      1.34406      .   S
    Zn2    N274      2.03729      .   S
    C152   C150      1.49777      .   S
    Zn3    N275      2.03451      .   S
    C164   H38       1.09587      .   S
    C164   H40       1.10511      .   S
    C153   C151      1.49779      .   S
    C165   H39       1.09554      .   S
    C165   H41       1.10511      .   S
    N310   C224      1.35551      .   S
    N310   Zn8       2.03782      .   S
    N311   C225      1.35566      .   S
    N311   Zn9       2.04368      .   S
    N316   C210      1.34589      .   S
    N316   Zn8       2.00214      .   S
    N317   C211      1.34513      .   S
    N317   Zn9       1.99728      .   S
    C210   C212      1.48683      .   S
    C211   C213      1.48678      .   S
    N304   C216      1.37616      .   S
    N304   Zn8       2.01023      .   S
    N306   C217      1.32804  1_455   S
    N307   C216      1.32735      .   S
    N305   C217      1.37634      .   S
    N305   Zn9       2.01821      .   S
    C224   C226      1.48578      .   S
    C225   C227      1.48643      .   S
    C216   C214      1.48611      .   S
    C217   C215      1.48542      .   S
    H24    C150      1.10447      .   S
    H25    C151      1.10436      .   S
    Zn8    N302      2.01210      .   S
    H108   C226      1.09912      .   S
    Zn9    N303      2.00855      .   S
    H92    C212      1.09870      .   S
    H109   C227      1.09918      .   S
    H93    C213      1.09877      .   S
    C150   H22       1.09662      .   S
    C150   C148      1.50212      .   S
    C151   H23       1.09661      .   S
    C151   C149      1.50175      .   S
    C226   H106      1.09498      .   S
    C226   H110      1.09803      .   S
    C212   H94       1.09995      .   S
    C212   H90       1.09509      .   S
    C213   H95       1.09986      .   S
    C213   H91       1.09502      .   S
    C227   H107      1.09496      .   S
    C227   H111      1.09797      .   S
    H100   C214      1.01335  1_545   S
    H101   C215      1.01814  1_545   S
    N274   C148      1.37640      .   S
    N274   C146      1.35779      .   S
    N275   C149      1.37633      .   S
    N275   C147      1.35807      .   S
    C214   H97       1.09632      .   S
    C214   H98       1.09774      .   S
    C215   H96       1.09704  1_655   S
    C215   H99       1.09879      .   S
    C148   N276      1.32843      .   S
    C149   N277      1.32828      .   S
    H20    C144      1.09954      .   S
    H48    C172      1.09530      .   S
    H21    C145      1.09950      .   S
    H49    C173      1.09518      .   S
    H18    C144      1.09868      .   S
    H19    C145      1.09869      .   S
    N302   N300      1.38839      .   S
    N302   C174      1.34407      .   S
    N303   N301      1.38808      .   S
    N303   C175      1.34456      .   S
    C146   C144      1.48707      .   S
    C146   N278      1.34408      .   S
    C147   C145      1.48710      .   S
    C147   N279      1.34445      .   S
    C144   H16       1.09543      .   S
    C145   H17       1.09544      .   S
    N300   C176      1.32842      .   S
    N276   N278      1.38806      .   S
    N277   N279      1.38849      .   S
    N301   C177      1.32822      .   S
    C172   C174      1.48711      .   S
    C172   H50       1.09881      .   S
    C172   H52       1.09965      .   S
    C173   C175      1.48709      .   S
    C173   H51       1.09879      .   S
    C173   H53       1.09955      .   S
    C174   N298      1.35791      .   S
    C175   N299      1.35808      .   S
    N278   Zn12      2.00776      .   S
    N279   Zn13      2.01440      .   S
    H130   C242      1.09768      .   S
    H131   C243      1.09704      .   S
    H128   C242      1.09634      .   S
    H142   C254      1.09796  1_545   S
    H143   C255      1.09805  1_545   S
    H129   C243      1.09644      .   S
    C176   N298      1.37638      .   S
    C176   C178      1.50226      .   S
    C177   N299      1.37647      .   S
    C177   C179      1.50113      .   S
    H122   C240      1.09557      .   S
    H123   C241      1.09519      .   S
    H126   C240      1.09994      .   S
    C242   H132      1.09913      .   S
    C242   C244      1.48618      .   S
    H127   C241      1.09991      .   S
    C243   H133      1.09975      .   S
    C243   C245      1.48694      .   S
    N298   Zn6       2.03317      .   S
    N299   Zn7       2.04053      .   S
    H54    C178      1.09664      .   S
    H55    C179      1.09664      .   S
    H138   C254      1.09518      .   S
    H139   C255      1.09495      .   S
    C254   H140      1.09914      .   S
    C254   C252      1.48580      .   S
    C240   H124      1.09869      .   S
    C240   C238      1.48670      .   S
    C241   H125      1.09870      .   S
    C241   C239      1.48675      .   S
    C255   H141      1.09909      .   S
    C255   C253      1.48567      .   S
    C178   H56       1.10444      .   S
    C178   C180      1.49808      .   S
    C179   H57       1.10420      .   S
    C179   C181      1.49699      .   S
    Zn12   N328      2.01678      .   S
    Zn12   N340      1.99832      .   S
    Zn12   N334      2.04161      .   S
    Zn13   N329      2.01432      .   S
    Zn13   N341      1.99794      .   S
    Zn13   N335      2.04034      .   S
    C244   N328      1.37623      .   S
    C244   N330      1.32758      .   S
    C245   N329      1.37631      .   S
    C245   N331      1.32749      .   S
    H72    C192      1.10501      .   S
    H73    C193      1.10507      .   S
    H70    C192      1.09578      .   S
    H71    C193      1.09585      .   S
    C252   N334      1.35557  1_565   S
    C252   N338      1.34437      .   S
    C253   N335      1.35579  1_565   S
    C253   N339      1.34467      .   S
    N328   C246      1.35496      .   S
    N330   N332      1.38549      .   S
    N329   C247      1.35572      .   S
    C238   N341      1.34601  1_455   S
    C238   N344      1.35317      .   S
    N331   N333      1.38543      .   S
    C239   N340      1.34538      .   S
    C239   N345      1.35274      .   S
    C192   C194      1.49664      .   S
    C180   N295      1.32775      .   S
    Zn6    N338      2.01438      .   S
    C193   C195      1.49654      .   S
    C181   N294      1.32767  1_655   S
    Zn7    N339      2.01386      .   S
    N288   C194      1.32575  1_545   S
    N289   C195      1.32589  1_545   S
    C246   N332      1.33986      .   S
    C247   N333      1.33959      .   S
