# CIF file generated by openbabel 2.4.90, see http://openbabel.sf.net
data_I
_chemical_name_common ''
_cell_length_a 6.045
_cell_length_b 14.041
_cell_length_c 15.6335
_cell_angle_alpha 90.032
_cell_angle_beta 90.648
_cell_angle_gamma 90.003
_space_group_name_H-M_alt 'P 1'
_space_group_name_Hall 'P 1'
loop_
    _symmetry_equiv_pos_as_xyz
    x,y,z
loop_
    _atom_site_label
    _atom_site_type_symbol
    _atom_site_fract_x
    _atom_site_fract_y
    _atom_site_fract_z
    _atom_site_occupancy
    N0      N    0.15845   0.25184   0.76247   1.000
    N1      N    0.34141   0.75084   0.73829   1.000
    N2      N    0.84163   0.74815   0.23754   1.000
    N3      N    0.65866   0.24915   0.26171   1.000
    Zr4     Zr   0.23340   0.50817   0.43857   1.000
    O5      O    0.41950   0.58030   0.37855   1.000
    O6      O    0.38107   0.43036   0.39419   1.000
    O7      O    0.08787   0.57803   0.38534   1.000
    O8      O    0.05165   0.42788   0.39186   1.000
    O9      O    0.20391   0.43218   0.53788   1.000
    Zr10    Zr   0.73338   0.99153   0.93874   1.000
    O11     O    0.91931   0.91887   0.87915   1.000
    O12     O    0.58783   0.92151   0.88566   1.000
    O13     O    0.55158   0.07217   0.89215   1.000
    O14     O    0.88100   0.06966   0.89444   1.000
    O15     O    0.70391   0.06790   0.03776   1.000
    Zr16    Zr   0.76667   0.49182   0.56143   1.000
    O17     O    0.94842   0.57211   0.60814   1.000
    O18     O    0.61900   0.56963   0.60581   1.000
    O19     O    0.79617   0.56781   0.46212   1.000
    O20     O    0.58058   0.41969   0.62146   1.000
    O21     O    0.91220   0.42196   0.61466   1.000
    Zr22    Zr   0.26671   0.00845   0.06126   1.000
    O23     O    0.11908   0.93033   0.10556   1.000
    O24     O    0.41225   0.07848   0.11434   1.000
    O25     O    0.29617   0.93208   0.96224   1.000
    O26     O    0.44850   0.92782   0.10785   1.000
    O27     O    0.08077   0.08111   0.12086   1.000
    O28     O    0.26292   0.58108   0.53019   1.000
    O29     O    0.73716   0.41891   0.46981   1.000
    O30     O    0.76296   0.91850   0.03013   1.000
    O31     O    0.23712   0.08149   0.96987   1.000
loop_
    _geom_bond_atom_site_label_1
    _geom_bond_atom_site_label_2
    _geom_bond_distance
    _geom_bond_site_symmetry_2
    _ccdc_geom_bond_type
    Zr4    O5        1.78797      .   S
    N2     O5        4.13013      .   S
    Zr4    O6        1.57637      .   S
    N3     O6        3.69496      .   S
    Zr4    O7        1.55346      .   S
    N2     O7        3.63174  1_655   S
    Zr4    O8        1.72971      .   S
    N3     O8        3.99580  1_655   S
    Zr4    O9        1.89437      .   S
    N0     O9        4.34124      .   S
    Zr10   O11       1.78740      .   S
    N1     O11       4.12896  1_455   S
    Zr10   O12       1.55298      .   S
    N1     O12       3.63119      .   S
    Zr10   O13       1.73297  1_565   S
    N0     O13       4.00242      .   S
    Zr10   O14       1.57924  1_565   S
    N0     O14       3.70094  1_455   S
    Zr10   O15       1.89274  1_566   S
    N3     O15       4.33828      .   S
    Zr16   O17       1.72969      .   S
    N1     O17       3.99578  1_455   S
    Zr16   O18       1.57638      .   S
    N1     O18       3.69496      .   S
    Zr16   O19       1.89436      .   S
    N2     O19       4.34124      .   S
    Zr16   O20       1.78797      .   S
    N0     O20       4.13014      .   S
    Zr16   O21       1.55346      .   S
    N0     O21       3.63174  1_455   S
    Zr22   O23       1.57924  1_545   S
    N2     O23       3.70094  1_655   S
    Zr22   O24       1.55297      .   S
    N3     O24       3.63117      .   S
    Zr22   O25       1.89273  1_544   S
    N1     O25       4.33827      .   S
    Zr22   O26       1.73295  1_545   S
    N2     O26       4.00239      .   S
    Zr22   O27       1.78741      .   S
    N3     O27       4.12902  1_655   S
    Zr4    O28       1.76746      .   S
    N1     O28       4.05553      .   S
    Zr16   O29       1.76747      .   S
    N3     O29       4.05554      .   S
    Zr10   O30       1.76659  1_556   S
    N2     O30       4.05395      .   S
    N0     O31       4.05396      .   S
    Zr22   O31       1.76661  1_554   S
