# CIF file generated by openbabel 2.4.90, see http://openbabel.sf.net
data_I
_chemical_name_common ''
_cell_length_a 6.045
_cell_length_b 14.041
_cell_length_c 15.6335
_cell_angle_alpha 90.032
_cell_angle_beta 90.648
_cell_angle_gamma 90.003
_space_group_name_H-M_alt 'P 1'
_space_group_name_Hall 'P 1'
loop_
    _symmetry_equiv_pos_as_xyz
    x,y,z
loop_
    _atom_site_label
    _atom_site_type_symbol
    _atom_site_fract_x
    _atom_site_fract_y
    _atom_site_fract_z
    _atom_site_occupancy
    N0      N    0.15845   0.25184   0.76247   1.000
    N1      N    0.34141   0.75084   0.73829   1.000
    N2      N    0.84163   0.74815   0.23754   1.000
    N3      N    0.65866   0.24915   0.26171   1.000
    Zr4     Zr   0.23340   0.50817   0.43857   1.000
    O5      O    0.41950   0.58030   0.37855   1.000
    O6      O    0.28571   0.57984   0.52902   1.000
    O7      O    0.38107   0.43036   0.39419   1.000
    O8      O    0.08787   0.57803   0.38534   1.000
    O9      O    0.05165   0.42788   0.39186   1.000
    O10     O    0.20391   0.43218   0.53788   1.000
    O11     O    0.24013   0.58232   0.53135   1.000
    Zr12    Zr   0.73338   0.99153   0.93874   1.000
    O13     O    0.78575   0.91976   0.02899   1.000
    O14     O    0.91931   0.91887   0.87915   1.000
    O15     O    0.58783   0.92151   0.88566   1.000
    O16     O    0.55158   0.07217   0.89215   1.000
    O17     O    0.74017   0.91724   0.03128   1.000
    O18     O    0.88100   0.06966   0.89444   1.000
    O19     O    0.70391   0.06790   0.03776   1.000
    Zr20    Zr   0.76667   0.49182   0.56143   1.000
    O21     O    0.94842   0.57211   0.60814   1.000
    O22     O    0.61900   0.56963   0.60581   1.000
    O23     O    0.71437   0.42015   0.47098   1.000
    O24     O    0.79617   0.56781   0.46212   1.000
    O25     O    0.58058   0.41969   0.62146   1.000
    O26     O    0.91220   0.42196   0.61466   1.000
    O27     O    0.75994   0.41767   0.46865   1.000
    Zr28    Zr   0.26671   0.00845   0.06126   1.000
    O29     O    0.11908   0.93033   0.10556   1.000
    O30     O    0.41225   0.07848   0.11434   1.000
    O31     O    0.29617   0.93208   0.96224   1.000
    O32     O    0.44850   0.92782   0.10785   1.000
    O33     O    0.08077   0.08111   0.12086   1.000
    O34     O    0.25991   0.08275   0.96873   1.000
    O35     O    0.21433   0.08023   0.97102   1.000
loop_
    _geom_bond_atom_site_label_1
    _geom_bond_atom_site_label_2
    _geom_bond_distance
    _geom_bond_site_symmetry_2
    _ccdc_geom_bond_type
    Zr4    O5        1.78797      .   S
    N2     O5        4.13013      .   S
    Zr4    O6        1.76086      .   S
    N1     O6        4.06786      .   S
    Zr4    O7        1.57637      .   S
    N3     O7        3.69496      .   S
    Zr4    O8        1.55346      .   S
    N2     O8        3.63174  1_655   S
    Zr4    O9        1.72971      .   S
    N3     O9        3.99580  1_655   S
    Zr4    O10       1.89437      .   S
    N0     O10       4.34124      .   S
    Zr4    O11       1.78509      .   S
    N1     O11       4.04802      .   S
    Zr12   O13       1.76011  1_556   S
    N2     O13       4.06617      .   S
    Zr12   O14       1.78740      .   S
    N1     O14       4.12896  1_455   S
    Zr12   O15       1.55298      .   S
    N1     O15       3.63119      .   S
    Zr12   O16       1.73297  1_565   S
    N0     O16       4.00242      .   S
    Zr12   O17       1.78411  1_556   S
    N2     O17       4.04655      .   S
    Zr12   O18       1.57924  1_565   S
    N0     O18       3.70094  1_455   S
    Zr12   O19       1.89274  1_566   S
    N3     O19       4.33828      .   S
    Zr20   O21       1.72969      .   S
    N1     O21       3.99578  1_455   S
    Zr20   O22       1.57638      .   S
    N1     O22       3.69496      .   S
    Zr20   O23       1.76087      .   S
    N3     O23       4.06787      .   S
    Zr20   O24       1.89436      .   S
    N2     O24       4.34124      .   S
    Zr20   O25       1.78797      .   S
    N0     O25       4.13014      .   S
    Zr20   O26       1.55346      .   S
    N0     O26       3.63174  1_455   S
    Zr20   O27       1.78510      .   S
    N3     O27       4.04803      .   S
    Zr28   O29       1.57924  1_545   S
    N2     O29       3.70094  1_655   S
    Zr28   O30       1.55297      .   S
    N3     O30       3.63117      .   S
    Zr28   O31       1.89273  1_544   S
    N1     O31       4.33827      .   S
    Zr28   O32       1.73295  1_545   S
    N2     O32       4.00239      .   S
    Zr28   O33       1.78741      .   S
    N3     O33       4.12902  1_655   S
    Zr28   O34       1.78412  1_554   S
    N0     O34       4.04657      .   S
    Zr28   O35       1.76013  1_554   S
    N0     O35       4.06618      .   S
