# CIF file generated by openbabel 2.4.90, see http://openbabel.sf.net
data_I
_chemical_name_common ''
_cell_length_a 6.045
_cell_length_b 14.041
_cell_length_c 15.6335
_cell_angle_alpha 90.032
_cell_angle_beta 90.648
_cell_angle_gamma 90.003
_space_group_name_H-M_alt 'P 1'
_space_group_name_Hall 'P 1'
loop_
    _symmetry_equiv_pos_as_xyz
    x,y,z
loop_
    _atom_site_label
    _atom_site_type_symbol
    _atom_site_fract_x
    _atom_site_fract_y
    _atom_site_fract_z
    _atom_site_occupancy
    Zr0     Zr   0.26671   0.00845   0.06126   1.000
    Zr1     Zr   0.23340   0.50817   0.43857   1.000
    Zr2     Zr   0.73338   0.99153   0.93874   1.000
    Zr3     Zr   0.76667   0.49182   0.56143   1.000
    N4      N    0.15845   0.25184   0.76247   1.000
    O5      O    0.25312   0.15704   0.87619   1.000
    O6      O    0.36979   0.15281   0.84556   1.000
    O7      O    0.02862   0.14778   0.85014   1.000
    O8      O    0.16196   0.15201   0.88077   1.000
    O9      O    0.39448   0.34755   0.68148   1.000
    O10     O    0.17442   0.35618   0.63719   1.000
    O11     O    0.05773   0.35210   0.66790   1.000
    N12     N    0.34141   0.75084   0.73829   1.000
    O13     O    0.24686   0.65648   0.62413   1.000
    O14     O    0.13017   0.65239   0.65484   1.000
    O15     O    0.47133   0.64743   0.65019   1.000
    O16     O    0.33801   0.65152   0.61947   1.000
    O17     O    0.10524   0.84622   0.81955   1.000
    O18     O    0.32562   0.85571   0.86322   1.000
    O19     O    0.44229   0.85148   0.83259   1.000
    N20     N    0.84163   0.74815   0.23754   1.000
    O21     O    0.63029   0.84718   0.15444   1.000
    O22     O    0.74696   0.84295   0.12381   1.000
    O23     O    0.97145   0.85221   0.14986   1.000
    O24     O    0.83812   0.84798   0.11923   1.000
    O25     O    0.60559   0.65244   0.31852   1.000
    O26     O    0.94234   0.64789   0.33210   1.000
    O27     O    0.82566   0.64380   0.36282   1.000
    N28     N    0.65866   0.24915   0.26171   1.000
    O29     O    0.86990   0.34760   0.34516   1.000
    O30     O    0.75321   0.34351   0.37587   1.000
    O31     O    0.52874   0.35256   0.34981   1.000
    O32     O    0.66206   0.34847   0.38053   1.000
    O33     O    0.89484   0.15377   0.18045   1.000
    O34     O    0.55778   0.14850   0.16741   1.000
    O35     O    0.67445   0.14427   0.13678   1.000
loop_
    _geom_bond_atom_site_label_1
    _geom_bond_atom_site_label_2
    _geom_bond_distance
    _geom_bond_site_symmetry_2
    _ccdc_geom_bond_type
    N4     O5        2.28905      .   S
    Zr0    O5        3.56824  1_554   S
    N4     O6        2.28418      .   S
    Zr2    O6        3.46594  1_565   S
    N4     O7        2.15772      .   S
    Zr2    O7        3.15848  1_665   S
    N4     O8        2.32116      .   S
    Zr0    O8        3.52025  1_554   S
    N4     O9        2.34252      .   S
    Zr3    O9        3.57594      .   S
    N4     O10       2.44935      .   S
    Zr1    O10       3.78873      .   S
    N4     O11       2.12607      .   S
    Zr3    O11       3.10693  1_655   S
    N12    O13       2.28948      .   S
    Zr1    O13       3.57018      .   S
    N12    O14       2.28110      .   S
    Zr3    O14       3.45938  1_655   S
    N12    O15       2.15509      .   S
    Zr3    O15       3.15277      .   S
    N12    O16       2.32205      .   S
    Zr1    O16       3.52171      .   S
    N12    O17       2.34197      .   S
    Zr2    O17       3.57480  1_655   S
    N12    O18       2.44805      .   S
    Zr0    O18       3.78546  1_544   S
    N12    O19       2.12588      .   S
    Zr2    O19       3.10596      .   S
    N20    O21       2.28417      .   S
    Zr0    O21       3.46591  1_545   S
    N20    O22       2.28904      .   S
    Zr2    O22       3.56822  1_556   S
    N20    O23       2.15773      .   S
    Zr0    O23       3.15848  1_445   S
    N20    O24       2.32117      .   S
    Zr2    O24       3.52022  1_556   S
    N20    O25       2.34251      .   S
    Zr1    O25       3.57594      .   S
    N20    O26       2.12607      .   S
    Zr1    O26       3.10692  1_455   S
    N20    O27       2.44936      .   S
    Zr3    O27       3.78872      .   S
    N28    O29       2.28111      .   S
    Zr1    O29       3.45941  1_455   S
    N28    O30       2.28948      .   S
    Zr3    O30       3.57019      .   S
    N28    O31       2.15509      .   S
    Zr1    O31       3.15275      .   S
    N28    O32       2.32205      .   S
    Zr3    O32       3.52174      .   S
    N28    O33       2.34202      .   S
    Zr0    O33       3.57482  1_455   S
    N28    O34       2.12587      .   S
    Zr0    O34       3.10594      .   S
    N28    O35       2.44805      .   S
    Zr2    O35       3.78547  1_566   S
