# CIF file generated by openbabel 2.4.90, see http://openbabel.sf.net
data_I
_chemical_name_common ''
_cell_length_a 11.092
_cell_length_b 16.183
_cell_length_c 17.987
_cell_angle_alpha 90.004
_cell_angle_beta 91.265
_cell_angle_gamma 90
_space_group_name_H-M_alt 'P 1'
_space_group_name_Hall 'P 1'
loop_
    _symmetry_equiv_pos_as_xyz
    x,y,z
loop_
    _atom_site_label
    _atom_site_type_symbol
    _atom_site_fract_x
    _atom_site_fract_y
    _atom_site_fract_z
    _atom_site_occupancy
    H0      H    0.74516   0.79851   0.88129   1.000
    H1      H    0.76623   0.79396   0.11938   1.000
    H2      H    0.64891   0.66200   0.12013   1.000
    H3      H    0.62711   0.66687   0.88110   1.000
    H4      H    0.25470   0.79853   0.11870   1.000
    H5      H    0.23393   0.79393   0.88061   1.000
    H6      H    0.35125   0.66197   0.87992   1.000
    H7      H    0.37280   0.66691   0.11895   1.000
    H8      H    0.25471   0.20150   0.11871   1.000
    H9      H    0.23392   0.20607   0.88061   1.000
    H10     H    0.35124   0.33803   0.87993   1.000
    H11     H    0.37281   0.33312   0.11896   1.000
    H12     H    0.74517   0.20149   0.88130   1.000
    H13     H    0.76622   0.20607   0.11938   1.000
    H14     H    0.64890   0.33803   0.12014   1.000
    H15     H    0.62712   0.33313   0.88111   1.000
    H16     H    0.18189   1.00000   0.80811   1.000
    H17     H    0.80915   0.99998   0.80101   1.000
    H18     H    0.19219   0.99999   0.66810   1.000
    H19     H    0.80280   0.99999   0.66070   1.000
    H20     H    0.81812   0.00001   0.19189   1.000
    H21     H    0.19087   0.00000   0.19900   1.000
    H22     H    0.80783   0.00001   0.33190   1.000
    H23     H    0.19720   0.99999   0.33930   1.000
    C24     C    0.76227   0.80427   0.00031   1.000
    C25     C    0.83906   0.88050   0.99976   1.000
    C26     C    0.56367   0.57606   0.00000   1.000
    C27     C    0.63056   0.65590   0.00000   1.000
    C28     C    0.72241   0.76839   0.93327   1.000
    C29     C    0.73435   0.76582   0.06758   1.000
    C30     C    0.66913   0.69234   0.06772   1.000
    C31     C    0.65693   0.69504   0.93343   1.000
    C32     C    0.23773   0.80426   0.99967   1.000
    C33     C    0.16093   0.88049   0.00000   1.000
    C34     C    0.43636   0.57606   0.99954   1.000
    C35     C    0.36948   0.65591   0.99942   1.000
    C36     C    0.27753   0.76841   0.06674   1.000
    C37     C    0.26575   0.76580   0.93243   1.000
    C38     C    0.33096   0.69232   0.93231   1.000
    C39     C    0.34302   0.69506   0.06661   1.000
    C40     C    0.23773   0.19576   0.99968   1.000
    C41     C    0.16093   0.11953   0.00000   1.000
    C42     C    0.43636   0.42396   0.99954   1.000
    C43     C    0.36947   0.34412   0.99943   1.000
    C44     C    0.27753   0.23162   0.06674   1.000
    C45     C    0.26574   0.23420   0.93243   1.000
    C46     C    0.33096   0.30769   0.93232   1.000
    C47     C    0.34302   0.30497   0.06662   1.000
    C48     C    0.76227   0.19575   0.00032   1.000
    C49     C    0.83906   0.11952   0.99977   1.000
    C50     C    0.56367   0.42396   0.00000   1.000
    C51     C    0.63056   0.34411   0.00000   1.000
    C52     C    0.72242   0.23161   0.93327   1.000
    C53     C    0.73435   0.23420   0.06758   1.000
    C54     C    0.66912   0.30768   0.06773   1.000
    C55     C    0.65693   0.30496   0.93343   1.000
    C56     C    0.10078   0.99997   0.77278   1.000
    C57     C    0.89125   0.00000   0.76879   1.000
    C58     C    0.10588   0.00001   0.69567   1.000
    C59     C    0.99767   0.00003   0.65377   1.000
    C60     C    0.88830   0.99997   0.69153   1.000
    C61     C    0.99889   0.99997   0.57179   1.000
    C62     C    0.89924   0.99999   0.22722   1.000
    C63     C    0.10876   0.00002   0.23121   1.000
    C64     C    0.89414   0.00003   0.30433   1.000
    C65     C    0.00234   0.00002   0.34623   1.000
    C66     C    0.11171   0.99997   0.30847   1.000
    C67     C    0.00112   0.99995   0.42821   1.000
    C68     C    0.62443   0.50001   0.00100   1.000
    C69     C    0.37560   0.50001   0.99909   1.000
    Br70    Br   0.79794   0.50001   0.00000   1.000
    Br71    Br   0.20209   0.50001   0.99874   1.000
    N72     N    0.99547   0.99998   0.80866   1.000
    N73     N    0.10752   0.99996   0.53890   1.000
    N74     N    0.89135   0.00002   0.53469   1.000
    N75     N    0.00455   0.99999   0.19134   1.000
    N76     N    0.89250   0.99999   0.46109   1.000
    N77     N    0.10866   0.99999   0.46530   1.000
    O78     O    0.86552   0.90983   0.93639   1.000
    O79     O    0.87461   0.90925   0.06252   1.000
    O80     O    0.13447   0.90985   0.06357   1.000
    O81     O    0.12542   0.90924   0.93744   1.000
    O82     O    0.13448   0.09018   0.06357   1.000
    O83     O    0.12542   0.09077   0.93744   1.000
    O84     O    0.86552   0.09018   0.93639   1.000
    O85     O    0.87462   0.09077   0.06252   1.000
loop_
    _geom_bond_atom_site_label_1
    _geom_bond_atom_site_label_2
    _geom_bond_distance
    _geom_bond_site_symmetry_2
    _ccdc_geom_bond_type
    C26    C27       1.48996      .   S
    C26    C68       1.40308      .   S
    C26    C34       1.41190  1_554   S
    C27    C30       1.41125      .   S
    C27    C31       1.39155  1_554   S
    C33    O80       1.27829      .   S
    C33    O81       1.27210  1_554   S
    C33    C32       1.49923  1_554   S
    Br70   C68       1.92503      .   S
    C41    O82       1.27831      .   S
    C41    O83       1.27206  1_554   S
    C41    C40       1.49931  1_554   S
    C50    C51       1.48997      .   S
    C50    C68       1.40316      .   S
    C50    C42       1.41192  1_554   S
    C51    C54       1.41130      .   S
    C51    C55       1.39145  1_554   S
    C24    C29       1.40117      .   S
    C24    C28       1.40114  1_554   S
    C24    C25       1.49937  1_554   S
    C48    C53       1.40116      .   S
    C48    C52       1.40109  1_554   S
    C48    C49       1.49939  1_554   S
    O79    C25       1.27534  1_554   S
    O85    C49       1.27534  1_554   S
    C39    C36       1.39164      .   S
    C39    H7        1.09049      .   S
    C39    C35       1.40140  1_554   S
    C47    C44       1.39164      .   S
    C47    H11       1.09049      .   S
    C47    C43       1.40140  1_554   S
    C36    H4        1.08893      .   S
    C36    C32       1.40118  1_554   S
    C44    H8        1.08891      .   S
    C44    C40       1.40120  1_554   S
    C29    C30       1.39196      .   S
    C29    H1        1.08899      .   S
    C53    C54       1.39197      .   S
    C53    H13       1.08901      .   S
    C30    H2        1.09058      .   S
    C54    H14       1.09056      .   S
    N75    C62       1.34695  1_455   S
    N75    C63       1.34680  1_565   S
    H20    C62       1.09004  1_545   S
    H21    C63       1.09012      .   S
    C62    C64       1.38927  1_565   S
    C63    C66       1.38943  1_545   S
    C64    H22       1.08794      .   S
    C64    C65       1.40298  1_655   S
    C66    H23       1.08790      .   S
    C66    C65       1.40323  1_565   S
    C65    C67       1.47494  1_545   S
    C67    N76       1.35384  1_455   S
    C67    N77       1.35394      .   S
    N76    N74       1.32418  1_565   S
    N77    N73       1.32418      .   S
    N74    C61       1.35393  1_545   S
    N73    C61       1.35396  1_455   S
    C61    C59       1.47494  1_565   S
    C59    C60       1.40324  1_545   S
    C59    C58       1.40311  1_655   S
    H19    C60       1.08790      .   S
    H18    C58       1.08793  1_565   S
    C60    C57       1.38943  1_565   S
    C58    C56       1.38927  1_545   S
    C57    H17       1.09012  1_545   S
    C57    N72       1.34680  1_545   S
    C56    H16       1.09003      .   S
    C56    N72       1.34700  1_455   S
    H6     C38       1.09057      .   S
    H10    C46       1.09058      .   S
    H5     C37       1.08902      .   S
    H9     C45       1.08901      .   S
    H3     C31       1.09049      .   S
    H15    C55       1.09048      .   S
    H0     C28       1.08892      .   S
    H12    C52       1.08892      .   S
    C38    C37       1.39196      .   S
    C38    C35       1.40147      .   S
    C46    C45       1.39197      .   S
    C46    C43       1.40151      .   S
    C37    C32       1.40118      .   S
    C45    C40       1.40112      .   S
    C28    C31       1.39164      .   S
    C52    C55       1.39164      .   S
    O78    C25       1.27496      .   S
    O84    C49       1.27502      .   S
    Br71   C69       1.92444      .   S
    C69    C34       1.40318      .   S
    C69    C42       1.40309      .   S
    C35    C34       1.48995      .   S
    C43    C42       1.48995      .   S
