# CIF file generated by openbabel 2.4.90, see http://openbabel.sf.net
data_I
_chemical_name_common ''
_cell_length_a 11.092
_cell_length_b 16.183
_cell_length_c 17.987
_cell_angle_alpha 90.004
_cell_angle_beta 91.265
_cell_angle_gamma 90
_space_group_name_H-M_alt 'P 1'
_space_group_name_Hall 'P 1'
loop_
    _symmetry_equiv_pos_as_xyz
    x,y,z
loop_
    _atom_site_label
    _atom_site_type_symbol
    _atom_site_fract_x
    _atom_site_fract_y
    _atom_site_fract_z
    _atom_site_occupancy
    C0      C    0.99507   1.00000   0.92404   1.000
    C1      C    0.00494   0.00000   0.07595   1.000
    C2      C    0.74516   0.79851   0.88129   1.000
    C3      C    0.76623   0.79396   0.11938   1.000
    C4      C    0.64891   0.66200   0.12013   1.000
    C5      C    0.62711   0.66687   0.88110   1.000
    C6      C    0.25470   0.79853   0.11870   1.000
    C7      C    0.23393   0.79393   0.88061   1.000
    C8      C    0.35125   0.66197   0.87992   1.000
    C9      C    0.37280   0.66691   0.11895   1.000
    C10     C    0.25471   0.20150   0.11871   1.000
    C11     C    0.23392   0.20607   0.88061   1.000
    C12     C    0.35124   0.33803   0.87993   1.000
    C13     C    0.37281   0.33312   0.11896   1.000
    C14     C    0.74517   0.20149   0.88130   1.000
    C15     C    0.76622   0.20607   0.11938   1.000
    C16     C    0.64890   0.33803   0.12014   1.000
    C17     C    0.62712   0.33313   0.88111   1.000
    C18     C    0.18189   1.00000   0.80811   1.000
    C19     C    0.80915   0.99998   0.80101   1.000
    C20     C    0.19219   0.99999   0.66810   1.000
    C21     C    0.80280   0.99999   0.66070   1.000
    C22     C    0.81812   0.00001   0.19189   1.000
    C23     C    0.19087   0.00000   0.19900   1.000
    C24     C    0.80783   0.00001   0.33190   1.000
    C25     C    0.19720   0.99999   0.33930   1.000
    C26     C    0.76227   0.80427   0.00031   1.000
    C27     C    0.83906   0.88050   0.99976   1.000
    C28     C    0.56367   0.57606   0.00000   1.000
    C29     C    0.63056   0.65590   0.00000   1.000
    C30     C    0.72241   0.76839   0.93327   1.000
    C31     C    0.73435   0.76582   0.06758   1.000
    C32     C    0.66913   0.69234   0.06772   1.000
    C33     C    0.65693   0.69504   0.93343   1.000
    C34     C    0.23773   0.80426   0.99967   1.000
    C35     C    0.16093   0.88049   0.00000   1.000
    C36     C    0.43636   0.57606   0.99954   1.000
    C37     C    0.36948   0.65591   0.99942   1.000
    C38     C    0.27753   0.76841   0.06674   1.000
    C39     C    0.26575   0.76580   0.93243   1.000
    C40     C    0.33096   0.69232   0.93231   1.000
    C41     C    0.34302   0.69506   0.06661   1.000
    C42     C    0.23773   0.19576   0.99968   1.000
    C43     C    0.16093   0.11953   0.00000   1.000
    C44     C    0.43636   0.42396   0.99954   1.000
    C45     C    0.36947   0.34412   0.99943   1.000
    C46     C    0.27753   0.23162   0.06674   1.000
    C47     C    0.26574   0.23420   0.93243   1.000
    C48     C    0.33096   0.30769   0.93232   1.000
    C49     C    0.34302   0.30497   0.06662   1.000
    C50     C    0.76227   0.19575   0.00032   1.000
    C51     C    0.83906   0.11952   0.99977   1.000
    C52     C    0.56367   0.42396   0.00000   1.000
    C53     C    0.63056   0.34411   0.00000   1.000
    C54     C    0.72242   0.23161   0.93327   1.000
    C55     C    0.73435   0.23420   0.06758   1.000
    C56     C    0.66912   0.30768   0.06773   1.000
    C57     C    0.65693   0.30496   0.93343   1.000
    C58     C    0.10078   0.99997   0.77278   1.000
    C59     C    0.89125   0.00000   0.76879   1.000
    C60     C    0.10588   0.00001   0.69567   1.000
    C61     C    0.99767   0.00003   0.65377   1.000
    C62     C    0.88830   0.99997   0.69153   1.000
    C63     C    0.99889   0.99997   0.57179   1.000
    C64     C    0.89924   0.99999   0.22722   1.000
    C65     C    0.10876   0.00002   0.23121   1.000
    C66     C    0.89414   0.00003   0.30433   1.000
    C67     C    0.00234   0.00002   0.34623   1.000
    C68     C    0.11171   0.99997   0.30847   1.000
    C69     C    0.00112   0.99995   0.42821   1.000
    C70     C    0.62443   0.50001   0.00100   1.000
    C71     C    0.37560   0.50001   0.99909   1.000
    C72     C    0.79794   0.50001   0.00000   1.000
    C73     C    0.20209   0.50001   0.99874   1.000
    C74     C    0.99547   0.99998   0.80866   1.000
    C75     C    0.10752   0.99996   0.53890   1.000
    C76     C    0.89135   0.00002   0.53469   1.000
    C77     C    0.00455   0.99999   0.19134   1.000
    C78     C    0.89250   0.99999   0.46109   1.000
    C79     C    0.10866   0.99999   0.46530   1.000
    C80     C    0.86552   0.90983   0.93639   1.000
    C81     C    0.87461   0.90925   0.06252   1.000
    C82     C    0.13447   0.90985   0.06357   1.000
    C83     C    0.12542   0.90924   0.93744   1.000
    C84     C    0.13448   0.09018   0.06357   1.000
    C85     C    0.12542   0.09077   0.93744   1.000
    C86     C    0.86552   0.09018   0.93639   1.000
    C87     C    0.87462   0.09077   0.06252   1.000
    O88     O    0.59712   0.61598   0.00000   1.000
    O89     O    0.59405   0.53803   0.00050   1.000
    O90     O    0.50002   0.57606   0.99977   1.000
    O91     O    0.64984   0.67412   0.03386   1.000
    O92     O    0.64375   0.67547   0.96671   1.000
    O93     O    0.14770   0.89517   0.03179   1.000
    O94     O    0.14317   0.89486   0.96872   1.000
    O95     O    0.19933   0.84237   0.99984   1.000
    O96     O    0.71119   0.50001   0.00050   1.000
    O97     O    0.14770   0.10485   0.03179   1.000
    O98     O    0.14317   0.10515   0.96872   1.000
    O99     O    0.19933   0.15764   0.99984   1.000
    O100    O    0.59712   0.38403   0.00000   1.000
    O101    O    0.59405   0.46198   0.00050   1.000
    O102    O    0.50001   0.42396   0.99977   1.000
    O103    O    0.64984   0.32590   0.03387   1.000
    O104    O    0.64375   0.32454   0.96672   1.000
    O105    O    0.74831   0.78504   0.03395   1.000
    O106    O    0.74234   0.78633   0.96679   1.000
    O107    O    0.80066   0.84238   0.00004   1.000
    O108    O    0.74831   0.21498   0.03395   1.000
    O109    O    0.74234   0.21368   0.96680   1.000
    O110    O    0.80066   0.15763   0.00004   1.000
    O111    O    0.93978   0.95463   0.06924   1.000
    O112    O    0.85684   0.89488   0.03114   1.000
    O113    O    0.93978   0.04539   0.06924   1.000
    O114    O    0.85684   0.10514   0.03115   1.000
    O115    O    0.06970   0.95492   0.06976   1.000
    O116    O    0.06971   0.04509   0.06976   1.000
    O117    O    0.31027   0.73173   0.06668   1.000
    O118    O    0.35791   0.68098   0.09278   1.000
    O119    O    0.35625   0.67548   0.03302   1.000
    O120    O    0.31028   0.26829   0.06668   1.000
    O121    O    0.35791   0.31905   0.09279   1.000
    O122    O    0.35625   0.32454   0.03302   1.000
    O123    O    0.26612   0.78347   0.09272   1.000
    O124    O    0.25763   0.78633   0.03321   1.000
    O125    O    0.26612   0.21656   0.09273   1.000
    O126    O    0.25763   0.21369   0.03321   1.000
    O127    O    0.70174   0.72908   0.06765   1.000
    O128    O    0.75029   0.77989   0.09348   1.000
    O129    O    0.70173   0.27094   0.06766   1.000
    O130    O    0.75028   0.22014   0.09348   1.000
    O131    O    0.65902   0.67717   0.09393   1.000
    O132    O    0.65901   0.32286   0.09393   1.000
    O133    O    0.00474   1.00000   0.13365   1.000
    O134    O    0.95190   0.99999   0.20928   1.000
    O135    O    0.05665   0.00000   0.21127   1.000
    O136    O    0.85868   0.00000   0.20956   1.000
    O137    O    0.14981   0.00001   0.21510   1.000
    O138    O    0.89669   0.00001   0.26577   1.000
    O139    O    0.11023   0.99999   0.26984   1.000
    O140    O    0.85099   0.00002   0.31811   1.000
    O141    O    0.94824   0.00003   0.32528   1.000
    O142    O    0.15445   0.99998   0.32389   1.000
    O143    O    0.05702   0.99999   0.32735   1.000
    O144    O    0.00173   0.99998   0.38722   1.000
    O145    O    0.94681   0.99997   0.44465   1.000
    O146    O    0.05489   0.99997   0.44676   1.000
    O147    O    0.89192   0.00000   0.49789   1.000
    O148    O    0.10809   0.99997   0.50210   1.000
    O149    O    0.94512   0.99999   0.55324   1.000
    O150    O    0.05321   0.99996   0.55535   1.000
    O151    O    0.99828   0.00000   0.61278   1.000
    O152    O    0.94298   1.00000   0.67265   1.000
    O153    O    0.05177   0.00002   0.67472   1.000
    O154    O    0.84555   0.99998   0.67612   1.000
    O155    O    0.14904   0.00000   0.68189   1.000
    O156    O    0.88978   0.99999   0.73016   1.000
    O157    O    0.10333   0.99999   0.73423   1.000
    O158    O    0.85020   0.99999   0.78490   1.000
    O159    O    0.94336   0.99999   0.78873   1.000
    O160    O    0.14134   0.99999   0.79044   1.000
    O161    O    0.04812   0.99998   0.79072   1.000
    O162    O    0.99527   0.99999   0.86635   1.000
    O163    O    0.34111   0.67714   0.90612   1.000
    O164    O    0.34110   0.32286   0.90612   1.000
    O165    O    0.24984   0.77987   0.90652   1.000
    O166    O    0.24983   0.22014   0.90652   1.000
    O167    O    0.64202   0.68096   0.90726   1.000
    O168    O    0.64202   0.31904   0.90727   1.000
    O169    O    0.73379   0.78345   0.90728   1.000
    O170    O    0.73379   0.21655   0.90728   1.000
    O171    O    0.93030   0.95491   0.93022   1.000
    O172    O    0.93030   0.04509   0.93022   1.000
    O173    O    0.06024   0.95462   0.93074   1.000
    O174    O    0.06025   0.04538   0.93074   1.000
    O175    O    0.29836   0.72906   0.93237   1.000
    O176    O    0.35022   0.67411   0.96587   1.000
    O177    O    0.29835   0.27094   0.93238   1.000
    O178    O    0.35021   0.32590   0.96587   1.000
    O179    O    0.25174   0.78503   0.96605   1.000
    O180    O    0.25173   0.21498   0.96605   1.000
    O181    O    0.68967   0.73172   0.93335   1.000
    O182    O    0.68968   0.26828   0.93335   1.000
    O183    O    0.85229   0.89517   0.96808   1.000
    O184    O    0.85229   0.10485   0.96808   1.000
    O185    O    0.28884   0.50001   0.99891   1.000
    O186    O    0.40598   0.53803   0.99931   1.000
    O187    O    0.40598   0.46198   0.99931   1.000
    O188    O    0.40292   0.61598   0.99948   1.000
    O189    O    0.40292   0.38404   0.99948   1.000
    O190    O    0.00000   1.00000   0.00000   1.000
loop_
    _geom_bond_atom_site_label_1
    _geom_bond_atom_site_label_2
    _geom_bond_distance
    _geom_bond_site_symmetry_2
    _ccdc_geom_bond_type
    C28    O88       0.74498      .   S
    C29    O88       0.74498      .   S
    C28    O89       0.70154      .   S
    C70    O89       0.70154      .   S
    C28    O90       0.70595  1_554   S
    C36    O90       0.70595      .   S
    C29    O91       0.70563      .   S
    C32    O91       0.70563      .   S
    C29    O92       0.69577  1_554   S
    C33    O92       0.69577      .   S
    C35    O93       0.63915      .   S
    C82    O93       0.63915      .   S
    C35    O94       0.63605  1_554   S
    C83    O94       0.63605      .   S
    C35    O95       0.74961  1_554   S
    C34    O95       0.74961      .   S
    C72    O96       0.96251      .   S
    C70    O96       0.96251      .   S
    C43    O97       0.63916      .   S
    C84    O97       0.63916      .   S
    C43    O98       0.63603  1_554   S
    C85    O98       0.63603      .   S
    C43    O99       0.74966  1_554   S
    C42    O99       0.74966      .   S
    C52    O100      0.74499      .   S
    C53    O100      0.74499      .   S
    C52    O101      0.70158      .   S
    C70    O101      0.70158      .   S
    C52    O102      0.70596  1_554   S
    C44    O102      0.70596      .   S
    C53    O103      0.70565      .   S
    C56    O103      0.70565      .   S
    C53    O104      0.69572  1_554   S
    C57    O104      0.69572      .   S
    C26    O105      0.70059      .   S
    C31    O105      0.70059      .   S
    C26    O106      0.70057  1_554   S
    C30    O106      0.70057      .   S
    C26    O107      0.74969      .   S
    C27    O107      0.74969  1_556   S
    C50    O108      0.70058      .   S
    C55    O108      0.70058      .   S
    C50    O109      0.70054  1_554   S
    C54    O109      0.70054      .   S
    C50    O110      0.74969      .   S
    C51    O110      0.74969  1_556   S
    C81    O111      1.03552      .   S
    C1     O111      1.03552  1_445   S
    C81    O112      0.63767      .   S
    C27    O112      0.63767  1_556   S
    C87    O113      1.03563      .   S
    C1     O113      1.03563  1_455   S
    C87    O114      0.63767      .   S
    C51    O114      0.63767  1_556   S
    C82    O115      1.03161      .   S
    C1     O115      1.03161  1_545   S
    C84    O116      1.03174      .   S
    C1     O116      1.03174      .   S
    C41    O117      0.69582      .   S
    C38    O117      0.69582      .   S
    C41    O118      0.54525      .   S
    C9     O118      0.54525      .   S
    C41    O119      0.70070      .   S
    C37    O119      0.70070  1_556   S
    C49    O120      0.69582      .   S
    C46    O120      0.69582      .   S
    C49    O121      0.54525      .   S
    C13    O121      0.54525      .   S
    C49    O122      0.70070      .   S
    C45    O122      0.70070  1_556   S
    C38    O123      0.54446      .   S
    C6     O123      0.54446      .   S
    C38    O124      0.70059      .   S
    C34    O124      0.70059  1_556   S
    C46    O125      0.54445      .   S
    C10    O125      0.54445      .   S
    C46    O126      0.70060      .   S
    C42    O126      0.70060  1_556   S
    C31    O127      0.69598      .   S
    C32    O127      0.69598      .   S
    C31    O128      0.54450      .   S
    C3     O128      0.54450      .   S
    C55    O129      0.69598      .   S
    C56    O129      0.69598      .   S
    C55    O130      0.54450      .   S
    C15    O130      0.54450      .   S
    C32    O131      0.54529      .   S
    C4     O131      0.54529      .   S
    C56    O132      0.54528      .   S
    C16    O132      0.54528      .   S
    C1     O133      1.03776  1_545   S
    C77    O133      1.03776      .   S
    C77    O134      0.67347  1_455   S
    C64    O134      0.67347      .   S
    C77    O135      0.67340  1_565   S
    C65    O135      0.67340      .   S
    C22    O136      0.54502      .   S
    C64    O136      0.54502  1_565   S
    C23    O137      0.54506      .   S
    C65    O137      0.54506      .   S
    C64    O138      0.69463  1_565   S
    C66    O138      0.69463      .   S
    C65    O139      0.69471  1_545   S
    C68    O139      0.69471      .   S
    C66    O140      0.54397      .   S
    C24    O140      0.54397      .   S
    C66    O141      0.70149      .   S
    C67    O141      0.70149  1_455   S
    C68    O142      0.54395      .   S
    C25    O142      0.54395      .   S
    C68    O143      0.70161      .   S
    C67    O143      0.70161  1_545   S
    C67    O144      0.73747  1_545   S
    C69    O144      0.73747      .   S
    C69    O145      0.67692  1_455   S
    C78    O145      0.67692      .   S
    C69    O146      0.67697      .   S
    C79    O146      0.67697      .   S
    C78    O147      0.66209  1_565   S
    C76    O147      0.66209      .   S
    C79    O148      0.66209      .   S
    C75    O148      0.66209      .   S
    C76    O149      0.67696  1_545   S
    C63    O149      0.67696      .   S
    C75    O150      0.67698      .   S
    C63    O150      0.67698  1_655   S
    C63    O151      0.73747  1_565   S
    C61    O151      0.73747      .   S
    C61    O152      0.70162  1_545   S
    C62    O152      0.70162      .   S
    C61    O153      0.70156  1_655   S
    C60    O153      0.70156      .   S
    C21    O154      0.54395      .   S
    C62    O154      0.54395      .   S
    C20    O155      0.54396  1_565   S
    C60    O155      0.54396      .   S
    C62    O156      0.69471      .   S
    C59    O156      0.69471  1_545   S
    C60    O157      0.69464  1_545   S
    C58    O157      0.69464      .   S
    C59    O158      0.54506  1_545   S
    C19    O158      0.54506      .   S
    C59    O159      0.67340  1_545   S
    C74    O159      0.67340      .   S
    C58    O160      0.54501      .   S
    C18    O160      0.54501      .   S
    C58    O161      0.67350      .   S
    C74    O161      0.67350  1_655   S
    C74    O162      1.03775      .   S
    C0     O162      1.03775      .   S
    C8     O163      0.54529      .   S
    C40    O163      0.54529      .   S
    C12    O164      0.54529      .   S
    C48    O164      0.54529      .   S
    C7     O165      0.54451      .   S
    C39    O165      0.54451      .   S
    C11    O166      0.54450      .   S
    C47    O166      0.54450      .   S
    C5     O167      0.54524      .   S
    C33    O167      0.54524      .   S
    C17    O168      0.54524      .   S
    C57    O168      0.54524      .   S
    C2     O169      0.54446      .   S
    C30    O169      0.54446      .   S
    C14    O170      0.54446      .   S
    C54    O170      0.54446      .   S
    C0     O171      1.03167      .   S
    C80    O171      1.03167      .   S
    C0     O172      1.03175  1_565   S
    C86    O172      1.03175      .   S
    C0     O173      1.03564  1_655   S
    C83    O173      1.03564      .   S
    C0     O174      1.03573  1_665   S
    C85    O174      1.03573      .   S
    C40    O175      0.69598      .   S
    C39    O175      0.69598      .   S
    C40    O176      0.70073      .   S
    C37    O176      0.70073      .   S
    C48    O177      0.69599      .   S
    C47    O177      0.69599      .   S
    C48    O178      0.70076      .   S
    C45    O178      0.70076      .   S
    C39    O179      0.70059      .   S
    C34    O179      0.70059      .   S
    C47    O180      0.70056      .   S
    C42    O180      0.70056      .   S
    C30    O181      0.69582      .   S
    C33    O181      0.69582      .   S
    C54    O182      0.69582      .   S
    C57    O182      0.69582      .   S
    C80    O183      0.63748      .   S
    C27    O183      0.63748      .   S
    C86    O184      0.63751      .   S
    C51    O184      0.63751      .   S
    C73    O185      0.96222      .   S
    C71    O185      0.96222      .   S
    C71    O186      0.70159      .   S
    C36    O186      0.70159      .   S
    C71    O187      0.70154      .   S
    C44    O187      0.70154      .   S
    C37    O188      0.74497      .   S
    C36    O188      0.74497      .   S
    C45    O189      0.74497      .   S
    C44    O189      0.74497      .   S
    C0     O190      1.36611  1_656   S
    C1     O190      1.36607  1_545   S
