# CIF file generated by openbabel 2.4.90, see http://openbabel.sf.net
data_I
_chemical_name_common ''
_cell_length_a 14.637
_cell_length_b 15.146
_cell_length_c 16.082
_cell_angle_alpha 93.928
_cell_angle_beta 90.101
_cell_angle_gamma 89.975
_space_group_name_H-M_alt 'P 1'
_space_group_name_Hall 'P 1'
loop_
    _symmetry_equiv_pos_as_xyz
    x,y,z
loop_
    _atom_site_label
    _atom_site_type_symbol
    _atom_site_fract_x
    _atom_site_fract_y
    _atom_site_fract_z
    _atom_site_occupancy
    Zn0     Zn   0.15592   0.62159   0.30208   1.000
    Zn1     Zn   0.12897   0.64142   0.04496   1.000
    Zn2     Zn   0.65278   0.87366   0.69137   1.000
    Zn3     Zn   0.88269   0.84015   0.45931   1.000
    Zn4     Zn   0.64896   0.37453   0.19814   1.000
    Zn5     Zn   0.62488   0.35170   0.45187   1.000
    Zn6     Zn   0.14840   0.12566   0.80512   1.000
    Zn7     Zn   0.62159   0.84405   0.96141   1.000
    Zn8     Zn   0.84803   0.37478   0.70119   1.000
    Zn9     Zn   0.87476   0.35536   0.95743   1.000
    Zn10    Zn   0.34755   0.12291   0.30543   1.000
    Zn11    Zn   0.11797   0.15619   0.54101   1.000
    Zn12    Zn   0.35162   0.62216   0.79881   1.000
    Zn13    Zn   0.37550   0.64492   0.54490   1.000
    Zn14    Zn   0.85505   0.87034   0.19719   1.000
    Zn15    Zn   0.38223   0.15543   0.03555   1.000
    C16     C    0.42270   0.02380   0.90343   1.000
    C17     C    0.60669   0.97212   0.82155   1.000
    C18     C    0.75074   0.22993   0.98053   1.000
    C19     C    0.56172   0.25753   0.07327   1.000
    C20     C    0.91698   0.48165   0.09346   1.000
    C21     C    0.10010   0.51245   0.18735   1.000
    C22     C    0.21257   0.22756   0.04955   1.000
    C23     C    0.04498   0.23953   0.92696   1.000
    C24     C    0.91953   0.97075   0.59339   1.000
    C25     C    0.10240   0.02522   0.67774   1.000
    C26     C    0.25184   0.77058   0.52026   1.000
    C27     C    0.06446   0.73947   0.42452   1.000
    C28     C    0.41231   0.51927   0.40705   1.000
    C29     C    0.59441   0.48419   0.31167   1.000
    C30     C    0.71272   0.76818   0.44580   1.000
    O31     O    0.11663   0.19424   0.90342   1.000
    O32     O    0.91859   0.03089   0.65023   1.000
    O33     O    0.85173   0.94132   0.54833   1.000
    O34     O    0.11651   0.10342   0.65650   1.000
    C35     C    0.54827   0.75878   0.57193   1.000
    C36     C    0.57958   0.97506   0.09316   1.000
    C37     C    0.39561   0.02607   0.17459   1.000
    C38     C    0.25272   0.76713   0.01718   1.000
    C39     C    0.44201   0.74031   0.92298   1.000
    C40     C    0.08695   0.51593   0.90798   1.000
    C41     C    0.90400   0.48509   0.81417   1.000
    C42     C    0.79267   0.77155   0.95021   1.000
    C43     C    0.95870   0.75782   0.07465   1.000
    C44     C    0.08069   0.02607   0.40673   1.000
    C45     C    0.89842   0.97218   0.32314   1.000
    C46     C    0.74951   0.22818   0.47989   1.000
    C47     C    0.93781   0.25724   0.57678   1.000
    C48     C    0.58772   0.47805   0.58910   1.000
    C49     C    0.40586   0.51216   0.68517   1.000
    C50     C    0.28884   0.22739   0.55210   1.000
    C51     C    0.45295   0.23700   0.42546   1.000
    O52     O    0.42319   0.96319   0.84701   1.000
    O53     O    0.35421   0.05208   0.94797   1.000
    O54     O    0.62153   0.89477   0.84408   1.000
    O55     O    0.61311   0.98803   0.74401   1.000
    O56     O    0.80798   0.20749   0.03181   1.000
    O57     O    0.75769   0.29587   0.93352   1.000
    O58     O    0.63266   0.30387   0.09704   1.000
    O59     O    0.48396   0.26273   0.10397   1.000
    O60     O    0.85121   0.46312   0.04176   1.000
    O61     O    0.91797   0.53935   0.15248   1.000
    O62     O    0.10925   0.50060   0.26528   1.000
    O63     O    0.11750   0.58832   0.16158   1.000
    O64     O    0.19092   0.15406   0.07265   1.000
    O65     O    0.29323   0.25178   0.02696   1.000
    O66     O    0.96967   0.24099   0.89164   1.000
    O67     O    0.10925   0.00884   0.75497   1.000
    O68     O    0.30852   0.79223   0.46837   1.000
    O69     O    0.25996   0.70657   0.56945   1.000
    O70     O    0.13602   0.69318   0.40251   1.000
    O71     O    0.98722   0.73365   0.39254   1.000
    O72     O    0.34767   0.53920   0.45939   1.000
    O73     O    0.41064   0.46251   0.34727   1.000
    O74     O    0.60478   0.49660   0.23402   1.000
    O75     O    0.60925   0.40728   0.33651   1.000
    O76     O    0.69124   0.84097   0.42088   1.000
    O77     O    0.79352   0.74411   0.46851   1.000
    O78     O    0.47411   0.75792   0.60909   1.000
    O79     O    0.62066   0.80409   0.59346   1.000
    O80     O    0.57832   0.03521   0.15001   1.000
    O81     O    0.64844   0.94779   0.04858   1.000
    O82     O    0.38222   0.10377   0.15251   1.000
    O83     O    0.38738   0.00946   0.25188   1.000
    O84     O    0.19554   0.78844   0.96539   1.000
    O85     O    0.24576   0.70269   0.06597   1.000
    O86     O    0.37152   0.69305   0.89950   1.000
    O87     O    0.51977   0.73619   0.89224   1.000
    O88     O    0.15239   0.53359   0.96025   1.000
    O89     O    0.08615   0.45898   0.84829   1.000
    O90     O    0.89458   0.49640   0.73616   1.000
    O91     O    0.88671   0.40929   0.84029   1.000
    O92     O    0.81612   0.84460   0.92729   1.000
    O93     O    0.71117   0.74837   0.97162   1.000
    O94     O    0.03358   0.75562   0.11070   1.000
    O95     O    0.88716   0.80348   0.09781   1.000
    O96     O    0.08130   0.96648   0.34935   1.000
    O97     O    0.14862   0.05499   0.45178   1.000
    O98     O    0.88619   0.89331   0.34372   1.000
    O99     O    0.89087   0.98887   0.24614   1.000
    O100    O    0.69213   0.20742   0.53156   1.000
    O101    O    0.74214   0.29171   0.43007   1.000
    O102    O    0.86674   0.30334   0.60032   1.000
    O103    O    0.01562   0.26272   0.60768   1.000
    O104    O    0.65167   0.45934   0.53577   1.000
    O105    O    0.58946   0.53435   0.64928   1.000
    O106    O    0.39555   0.49993   0.76288   1.000
    O107    O    0.39068   0.58889   0.66010   1.000
    O108    O    0.31147   0.15437   0.57574   1.000
    O109    O    0.20744   0.25171   0.53129   1.000
    O110    O    0.52742   0.23752   0.38873   1.000
    O111    O    0.38049   0.19208   0.40345   1.000
loop_
    _geom_bond_atom_site_label_1
    _geom_bond_atom_site_label_2
    _geom_bond_distance
    _geom_bond_site_symmetry_2
    _ccdc_geom_bond_type
    C38    O85       1.29772      .   S
    C38    O84       1.23790  1_554   S
    O65    Zn15      1.96743      .   S
    O65    C22       1.29639      .   S
    O56    C18       1.23818  1_554   S
    Zn15   O82       2.08611      .   S
    Zn15   O53       2.07343  1_554   S
    O60    C20       1.28933      .   S
    O60    Zn9       2.07835  1_554   S
    Zn1    O85       1.96304      .   S
    Zn1    O63       2.09768      .   S
    Zn1    O88       2.08265  1_554   S
    O81    C36       1.28918      .   S
    O81    Zn7       2.07015  1_554   S
    C22    O64       1.23901      .   S
    C19    O58       1.29590      .   S
    C19    O59       1.24174      .   S
    C43    O95       1.29572      .   S
    C43    O94       1.24044  1_655   S
    C36    O80       1.24582  1_565   S
    C20    O61       1.24553      .   S
    O58    Zn4       1.89906      .   S
    O95    Zn14      1.89247      .   S
    O82    C37       1.26744      .   S
    O63    C21       1.27403      .   S
    C37    O83       1.29076      .   S
    C21    O62       1.28500      .   S
    Zn14   O99       1.98071      .   S
    Zn4    O74       2.00595      .   S
    O74    C29       1.28487      .   S
    O99    C45       1.28536      .   S
    O83    Zn10      1.95764      .   S
    O62    Zn0       2.00653      .   S
    Zn0    O70       1.90539      .   S
    Zn10   O111      1.89373      .   S
    C29    O75       1.27553      .   S
    C45    O98       1.27407      .   S
    O75    Zn5       2.10128      .   S
    O98    Zn3       2.07644      .   S
    O73    C28       1.24525      .   S
    O96    C44       1.24583  1_565   S
    O110   C51       1.24098      .   S
    O71    C27       1.24188  1_655   S
    O70    C27       1.29637      .   S
    O111   C51       1.29590      .   S
    C44    O97       1.28838      .   S
    C28    O72       1.28938      .   S
    O76    C30       1.23888      .   S
    O101   Zn5       1.96243      .   S
    O101   C46       1.29802      .   S
    C30    O77       1.29667      .   S
    O97    Zn11      2.07600      .   S
    Zn5    O104      2.08071      .   S
    Zn3    O77       1.96803      .   S
    Zn3    O33       2.07465      .   S
    O72    Zn13      2.07797      .   S
    O68    C26       1.23791      .   S
    C46    O100      1.23817      .   S
    C26    O69       1.29778      .   S
    O109   Zn11      1.96618      .   S
    O109   C50       1.29714      .   S
    O104   C48       1.28902      .   S
    Zn11   O34       2.07183      .   S
    Zn13   O69       1.95909      .   S
    Zn13   O107      2.10129      .   S
    O33    C24       1.28926      .   S
    C50    O108      1.23866      .   S
    C35    O79       1.29632      .   S
    C35    O78       1.24052      .   S
    C47    O102      1.29512      .   S
    C47    O103      1.24236  1_655   S
    C48    O105      1.24543      .   S
    C24    O32       1.24568  1_565   S
    O79    Zn2       1.89250      .   S
    O102   Zn8       1.90729      .   S
    O34    C25       1.27209      .   S
    O107   C49       1.27522      .   S
    C25    O67       1.28681      .   S
    C49    O106      1.28509      .   S
    Zn2    O55       1.96317      .   S
    Zn8    O90       2.00798      .   S
    O90    C41       1.28483      .   S
    O55    C17       1.28979      .   S
    O67    Zn6       1.97812      .   S
    O106   Zn12      2.00711      .   S
    Zn12   O86       1.90270      .   S
    Zn6    O31       1.88977      .   S
    C41    O91       1.27492      .   S
    C17    O54       1.26837      .   S
    O91    Zn9       2.11155      .   S
    O54    Zn7       2.08540      .   S
    O52    C16       1.24581  1_565   S
    O89    C40       1.24584      .   S
    O66    C23       1.24015  1_655   S
    O87    C39       1.24153      .   S
    O86    C39       1.29693      .   S
    O31    C23       1.29567      .   S
    C16    O53       1.28903      .   S
    C40    O88       1.28927      .   S
    O92    C42       1.23872      .   S
    O57    Zn9       1.96159      .   S
    O57    C18       1.29739      .   S
    C42    O93       1.29735      .   S
    Zn7    O93       1.96881      .   S
    O75    Zn4       2.32146      .   S
    O107   Zn12      2.32523      .   S
