# CIF file generated by openbabel 2.4.90, see http://openbabel.sf.net
data_I
_chemical_name_common ''
_cell_length_a 14.637
_cell_length_b 15.146
_cell_length_c 16.082
_cell_angle_alpha 93.928
_cell_angle_beta 90.101
_cell_angle_gamma 89.975
_space_group_name_H-M_alt 'P 1'
_space_group_name_Hall 'P 1'
loop_
    _symmetry_equiv_pos_as_xyz
    x,y,z
loop_
    _atom_site_label
    _atom_site_type_symbol
    _atom_site_fract_x
    _atom_site_fract_y
    _atom_site_fract_z
    _atom_site_occupancy
    N0      N    0.61039   0.11655   0.93256   1.000
    N1      N    0.50094   0.24960   0.76350   1.000
    N2      N    0.09312   0.36600   0.07944   1.000
    N3      N    0.39265   0.88129   0.06381   1.000
    N4      N    0.50086   0.74879   0.23484   1.000
    N5      N    0.59062   0.63085   0.41932   1.000
    N6      N    0.99591   0.24889   0.26261   1.000
    N7      N    0.00440   0.74760   0.73594   1.000
    N8      N    0.91178   0.63194   0.92163   1.000
    N9      N    0.10922   0.88178   0.56570   1.000
    N10     N    0.89142   0.11566   0.43524   1.000
    N11     N    0.41015   0.36529   0.57777   1.000
    Zr12    Zr   0.36805   0.12548   0.14180   1.000
    O13     O    0.25387   0.16110   0.21099   1.000
    O14     O    0.25154   0.22022   0.10373   1.000
    O15     O    0.39794   0.22090   0.33140   1.000
    O16     O    0.38251   0.02986   0.12279   1.000
    Zr17    Zr   0.87363   0.36869   0.86197   1.000
    O18     O    0.76649   0.26403   0.90707   1.000
    O19     O    0.89179   0.26905   0.67507   1.000
    O20     O    0.89298   0.47341   0.87234   1.000
    O21     O    0.75844   0.33517   0.80080   1.000
    Zr22    Zr   0.87000   0.86986   0.35570   1.000
    O23     O    0.75185   0.77568   0.39383   1.000
    O24     O    0.88358   0.96650   0.37530   1.000
    O25     O    0.90052   0.77495   0.16716   1.000
    O26     O    0.75774   0.83466   0.28725   1.000
    Zr27    Zr   0.37453   0.63057   0.63846   1.000
    O28     O    0.26062   0.66298   0.69926   1.000
    O29     O    0.39346   0.72916   0.82483   1.000
    O30     O    0.26680   0.73515   0.59268   1.000
    O31     O    0.39328   0.52486   0.62750   1.000
    Zr32    Zr   0.62666   0.36696   0.35873   1.000
    O33     O    0.60762   0.47202   0.36959   1.000
    O34     O    0.73426   0.26256   0.40628   1.000
    O35     O    0.74019   0.33409   0.29838   1.000
    O36     O    0.60879   0.26852   0.17193   1.000
    Zr37    Zr   0.12992   0.62839   0.13899   1.000
    O38     O    0.23691   0.73327   0.09180   1.000
    O39     O    0.11105   0.52403   0.12875   1.000
    O40     O    0.11057   0.72809   0.32594   1.000
    O41     O    0.24461   0.66223   0.19976   1.000
    Zr42    Zr   0.63465   0.87257   0.85556   1.000
    O43     O    0.75224   0.77796   0.89528   1.000
    O44     O    0.60387   0.77613   0.66588   1.000
    O45     O    0.74762   0.83615   0.78668   1.000
    O46     O    0.62021   0.96818   0.87401   1.000
    Zr47    Zr   0.13173   0.12679   0.64460   1.000
    O48     O    0.10254   0.22225   0.83361   1.000
    O49     O    0.11757   0.03050   0.62532   1.000
    O50     O    0.24426   0.16249   0.71260   1.000
    O51     O    0.24954   0.22061   0.60500   1.000
    O52     O    0.95111   0.87993   0.45329   1.000
    O53     O    0.05004   0.11693   0.54722   1.000
    O54     O    0.55459   0.37534   0.45730   1.000
    O55     O    0.94720   0.37707   0.96038   1.000
    O56     O    0.44630   0.62165   0.53973   1.000
    O57     O    0.45073   0.11630   0.04412   1.000
    O58     O    0.55212   0.88188   0.95277   1.000
    O59     O    0.05706   0.62030   0.04079   1.000
loop_
    _geom_bond_atom_site_label_1
    _geom_bond_atom_site_label_2
    _geom_bond_distance
    _geom_bond_site_symmetry_2
    _ccdc_geom_bond_type
    Zr12   O13       2.06053      .   S
    N6     O13       4.07055  1_655   S
    Zr12   O14       2.33598      .   S
    N2     O14       3.24271      .   S
    Zr12   O15       3.31202      .   S
    N11    O15       4.39594      .   S
    Zr12   O16       1.47486      .   S
    N3     O16       2.38595  1_565   S
    Zr17   O18       2.37942      .   S
    N0     O18       3.24209      .   S
    Zr17   O19       3.28079      .   S
    N10    O19       4.36417      .   S
    Zr17   O20       1.60862      .   S
    N8     O20       2.49169      .   S
    Zr17   O21       1.99868      .   S
    N1     O21       4.01679      .   S
    Zr22   O23       2.35103      .   S
    N5     O23       3.26798      .   S
    Zr22   O24       1.48947      .   S
    N10    O24       2.39733  1_545   S
    Zr22   O25       3.29645      .   S
    N8     O25       4.37495  1_556   S
    Zr22   O26       2.02729      .   S
    N4     O26       4.04742      .   S
    Zr27   O28       1.97902      .   S
    N7     O28       3.99435      .   S
    Zr27   O29       3.26716      .   S
    N3     O29       4.34358  1_554   S
    Zr27   O30       2.38562      .   S
    N9     O30       3.25023      .   S
    Zr27   O31       1.62200      .   S
    N11    O31       2.50539      .   S
    Zr32   O33       1.61307      .   S
    N5     O33       2.49496      .   S
    Zr32   O34       2.39269      .   S
    N10    O34       3.25468      .   S
    Zr32   O35       1.97225      .   S
    N6     O35       3.98838      .   S
    Zr32   O36       3.27104      .   S
    N0     O36       4.34786  1_556   S
    Zr37   O38       2.39235      .   S
    N3     O38       3.25139      .   S
    Zr37   O39       1.60197      .   S
    N2     O39       2.48327      .   S
    Zr37   O40       3.28327      .   S
    N9     O40       4.36545      .   S
    Zr37   O41       1.99041      .   S
    N4     O41       4.00016      .   S
    Zr42   O43       2.35450      .   S
    N8     O43       3.26255      .   S
    Zr42   O44       3.32056      .   S
    N5     O44       4.40510      .   S
    Zr42   O45       2.04637      .   S
    N7     O45       4.05557  1_455   S
    Zr42   O46       1.47336      .   S
    N0     O46       2.38067  1_545   S
    Zr47   O48       3.30377      .   S
    N2     O48       4.38302  1_554   S
    Zr47   O49       1.48461      .   S
    N9     O49       2.39006  1_565   S
    Zr47   O50       2.02853      .   S
    N1     O50       4.04620      .   S
    Zr47   O51       2.35129      .   S
    N11    O51       3.26487      .   S
    Zr22   O52       1.96384      .   S
    N9     O52       2.93311  1_455   S
    Zr47   O53       1.96619      .   S
    N10    O53       2.93498  1_655   S
    N11    O54       2.88125      .   S
    Zr32   O54       1.90269      .   S
    Zr17   O55       1.90972      .   S
    N2     O55       2.87836  1_454   S
    Zr27   O56       1.90232      .   S
    N5     O56       2.87812      .   S
    N0     O57       2.94893  1_556   S
    Zr12   O57       1.98194      .   S
    N3     O58       2.94179  1_554   S
    Zr42   O58       1.97469      .   S
    N8     O59       2.87355  1_656   S
    Zr37   O59       1.90104      .   S
