# CIF file generated by openbabel 2.4.90, see http://openbabel.sf.net
data_I
_chemical_name_common ''
_cell_length_a 14.637
_cell_length_b 15.146
_cell_length_c 16.082
_cell_angle_alpha 93.928
_cell_angle_beta 90.101
_cell_angle_gamma 89.975
_space_group_name_H-M_alt 'P 1'
_space_group_name_Hall 'P 1'
loop_
    _symmetry_equiv_pos_as_xyz
    x,y,z
loop_
    _atom_site_label
    _atom_site_type_symbol
    _atom_site_fract_x
    _atom_site_fract_y
    _atom_site_fract_z
    _atom_site_occupancy
    C0      C    0.38223   0.15543   0.03555   1.000
    C1      C    0.15592   0.62159   0.30208   1.000
    C2      C    0.12897   0.64142   0.04496   1.000
    C3      C    0.65278   0.87366   0.69137   1.000
    C4      C    0.88269   0.84015   0.45931   1.000
    C5      C    0.64896   0.37453   0.19814   1.000
    C6      C    0.62488   0.35170   0.45187   1.000
    C7      C    0.14840   0.12566   0.80512   1.000
    C8      C    0.62159   0.84405   0.96141   1.000
    C9      C    0.84803   0.37478   0.70119   1.000
    C10     C    0.87476   0.35536   0.95743   1.000
    C11     C    0.34755   0.12291   0.30543   1.000
    C12     C    0.11797   0.15619   0.54101   1.000
    C13     C    0.35162   0.62216   0.79881   1.000
    C14     C    0.37550   0.64492   0.54490   1.000
    C15     C    0.85505   0.87034   0.19719   1.000
    C16     C    0.73738   0.08772   0.87357   1.000
    C17     C    0.21326   0.37520   0.15240   1.000
    C18     C    0.75153   0.71442   0.13418   1.000
    C19     C    0.59612   0.65433   0.14560   1.000
    C20     C    0.52719   0.89122   0.29994   1.000
    C21     C    0.68433   0.94177   0.28129   1.000
    C22     C    0.32922   0.54164   0.22647   1.000
    C23     C    0.48351   0.59499   0.19725   1.000
    C24     C    0.39228   0.85847   0.28290   1.000
    C25     C    0.24368   0.79345   0.31357   1.000
    C26     C    0.23507   0.91267   0.62625   1.000
    C27     C    0.70970   0.61943   0.34459   1.000
    C28     C    0.24423   0.27786   0.37004   1.000
    C29     C    0.08938   0.33969   0.35705   1.000
    C30     C    0.02423   0.11152   0.18957   1.000
    C31     C    0.18070   0.05874   0.21015   1.000
    C32     C    0.82533   0.45706   0.26797   1.000
    C33     C    0.98064   0.40400   0.29547   1.000
    C34     C    0.88702   0.13910   0.21792   1.000
    C35     C    0.73698   0.20347   0.18940   1.000
    C36     C    0.26566   0.90942   0.12301   1.000
    C37     C    0.79138   0.62318   0.84809   1.000
    C38     C    0.24989   0.28411   0.86324   1.000
    C39     C    0.40467   0.34515   0.85045   1.000
    C40     C    0.47460   0.10727   0.69792   1.000
    C41     C    0.31802   0.05585   0.71772   1.000
    C42     C    0.67339   0.45644   0.77332   1.000
    C43     C    0.51816   0.40387   0.80012   1.000
    C44     C    0.60905   0.14008   0.71505   1.000
    C45     C    0.75874   0.20429   0.68714   1.000
    C46     C    0.76540   0.08559   0.37473   1.000
    C47     C    0.29111   0.37639   0.65257   1.000
    C48     C    0.75628   0.71801   0.62843   1.000
    C49     C    0.91106   0.65639   0.64199   1.000
    C50     C    0.97561   0.88518   0.80891   1.000
    C51     C    0.81929   0.93776   0.78772   1.000
    C52     C    0.17553   0.53983   0.72973   1.000
    C53     C    0.02006   0.59268   0.70265   1.000
    C54     C    0.11293   0.85739   0.78183   1.000
    C55     C    0.26322   0.79319   0.80972   1.000
    C56     C    0.42270   0.02380   0.90343   1.000
    C57     C    0.51248   0.07187   0.92234   1.000
    C58     C    0.59563   0.04993   0.88320   1.000
    C59     C    0.60669   0.97212   0.82155   1.000
    C60     C    0.67187   0.10256   0.90357   1.000
    C61     C    0.66590   0.17446   0.96306   1.000
    C62     C    0.75074   0.22993   0.98053   1.000
    C63     C    0.58114   0.18972   0.00214   1.000
    C64     C    0.56172   0.25753   0.07327   1.000
    C65     C    0.91698   0.48165   0.09346   1.000
    C66     C    0.00191   0.42409   0.08073   1.000
    C67     C    0.08235   0.43424   0.12783   1.000
    C68     C    0.10010   0.51245   0.18735   1.000
    C69     C    0.15081   0.37031   0.11527   1.000
    C70     C    0.14129   0.30026   0.05419   1.000
    C71     C    0.21257   0.22756   0.04955   1.000
    C72     C    0.06218   0.29933   0.00466   1.000
    C73     C    0.04498   0.23953   0.92696   1.000
    C74     C    0.69967   0.75082   0.17075   1.000
    C75     C    0.61195   0.71812   0.17749   1.000
    C76     C    0.54616   0.76713   0.22478   1.000
    C77     C    0.57336   0.84935   0.26193   1.000
    C78     C    0.66233   0.87833   0.25252   1.000
    C79     C    0.34560   0.61158   0.23690   1.000
    C80     C    0.43221   0.64257   0.22015   1.000
    C81     C    0.45296   0.73255   0.23720   1.000
    C82     C    0.38263   0.78775   0.26945   1.000
    C83     C    0.29791   0.75220   0.28570   1.000
    C84     C    0.91953   0.97075   0.59339   1.000
    C85     C    0.01045   0.92474   0.57481   1.000
    C86     C    0.09279   0.94808   0.61507   1.000
    C87     C    0.10240   0.02522   0.67774   1.000
    C88     C    0.17013   0.89683   0.59542   1.000
    C89     C    0.16595   0.82480   0.53597   1.000
    C90     C    0.25184   0.77058   0.52026   1.000
    C91     C    0.08199   0.80812   0.49562   1.000
    C92     C    0.06446   0.73947   0.42452   1.000
    C93     C    0.41231   0.51927   0.40705   1.000
    C94     C    0.49912   0.57426   0.41951   1.000
    C95     C    0.57863   0.56245   0.37151   1.000
    C96     C    0.59441   0.48419   0.31167   1.000
    C97     C    0.64817   0.62546   0.38270   1.000
    C98     C    0.64080   0.69612   0.44338   1.000
    C99     C    0.71272   0.76818   0.44580   1.000
    C100    C    0.56289   0.69827   0.49428   1.000
    C101    C    0.54827   0.75878   0.57193   1.000
    C102    C    0.19335   0.24378   0.33034   1.000
    C103    C    0.10611   0.27745   0.32268   1.000
    C104    C    0.04155   0.23095   0.27169   1.000
    C105    C    0.06949   0.15069   0.23108   1.000
    C106    C    0.15795   0.12059   0.24158   1.000
    C107    C    0.84131   0.38687   0.25911   1.000
    C108    C    0.92845   0.35622   0.27480   1.000
    C109    C    0.94844   0.26583   0.25959   1.000
    C110    C    0.87737   0.21003   0.22995   1.000
    C111    C    0.79212   0.24529   0.21491   1.000
    C112    C    0.57958   0.97506   0.09316   1.000
    C113    C    0.49021   0.92653   0.07382   1.000
    C114    C    0.40700   0.94828   0.11292   1.000
    C115    C    0.39561   0.02607   0.17459   1.000
    C116    C    0.33118   0.89502   0.09287   1.000
    C117    C    0.33754   0.82293   0.03361   1.000
    C118    C    0.25272   0.76713   0.01718   1.000
    C119    C    0.42222   0.80809   0.99422   1.000
    C120    C    0.44201   0.74031   0.92298   1.000
    C121    C    0.08695   0.51593   0.90798   1.000
    C122    C    0.00211   0.57356   0.92072   1.000
    C123    C    0.92179   0.56353   0.87340   1.000
    C124    C    0.90400   0.48509   0.81417   1.000
    C125    C    0.85361   0.62784   0.88554   1.000
    C126    C    0.86315   0.69799   0.94655   1.000
    C127    C    0.79267   0.77155   0.95021   1.000
    C128    C    0.94193   0.69848   0.99656   1.000
    C129    C    0.95870   0.75782   0.07465   1.000
    C130    C    0.30183   0.24766   0.82681   1.000
    C131    C    0.38923   0.28090   0.81933   1.000
    C132    C    0.45522   0.23173   0.77246   1.000
    C133    C    0.42833   0.14920   0.73577   1.000
    C134    C    0.33967   0.11968   0.74587   1.000
    C135    C    0.65668   0.38660   0.76251   1.000
    C136    C    0.56955   0.35607   0.77790   1.000
    C137    C    0.54855   0.26618   0.76054   1.000
    C138    C    0.61898   0.21069   0.72901   1.000
    C139    C    0.70427   0.24577   0.71425   1.000
    C140    C    0.08069   0.02607   0.40673   1.000
    C141    C    0.98991   0.07212   0.42597   1.000
    C142    C    0.90737   0.04911   0.38601   1.000
    C143    C    0.89842   0.97218   0.32314   1.000
    C144    C    0.83042   0.10096   0.40559   1.000
    C145    C    0.83510   0.17315   0.46495   1.000
    C146    C    0.74951   0.22818   0.47989   1.000
    C147    C    0.91916   0.18911   0.50540   1.000
    C148    C    0.93781   0.25724   0.57678   1.000
    C149    C    0.58772   0.47805   0.58910   1.000
    C150    C    0.50132   0.42234   0.57724   1.000
    C151    C    0.42192   0.43386   0.62547   1.000
    C152    C    0.40586   0.51216   0.68517   1.000
    C153    C    0.35266   0.37056   0.61446   1.000
    C154    C    0.36031   0.29975   0.55400   1.000
    C155    C    0.28884   0.22739   0.55210   1.000
    C156    C    0.43811   0.29769   0.50299   1.000
    C157    C    0.45295   0.23700   0.42546   1.000
    C158    C    0.80700   0.75230   0.66814   1.000
    C159    C    0.89424   0.71872   0.67613   1.000
    C160    C    0.95869   0.76547   0.72704   1.000
    C161    C    0.93057   0.84581   0.76737   1.000
    C162    C    0.84211   0.87582   0.75651   1.000
    C163    C    0.15932   0.60993   0.73902   1.000
    C164    C    0.07213   0.64049   0.72351   1.000
    C165    C    0.05187   0.73077   0.73923   1.000
    C166    C    0.12278   0.78655   0.76925   1.000
    C167    C    0.20817   0.75142   0.78401   1.000
    C168    C    0.50836   0.13958   0.98004   1.000
    C169    C    0.00000   0.35856   0.02098   1.000
    C170    C    0.72513   0.82993   0.20836   1.000
    C171    C    0.27950   0.66515   0.27033   1.000
    C172    C    0.00816   0.85720   0.51677   1.000
    C173    C    0.49504   0.63996   0.47927   1.000
    C174    C    0.21940   0.16617   0.29009   1.000
    C175    C    0.77412   0.33259   0.22881   1.000
    C176    C    0.49474   0.85876   0.01620   1.000
    C177    C    0.00847   0.63898   0.98058   1.000
    C178    C    0.27690   0.16788   0.79029   1.000
    C179    C    0.72309   0.33264   0.73030   1.000
    C180    C    0.99259   0.13956   0.48401   1.000
    C181    C    0.50561   0.35646   0.51767   1.000
    C182    C    0.78081   0.83008   0.70798   1.000
    C183    C    0.22640   0.66423   0.76957   1.000
    C184    C    0.42319   0.96319   0.84701   1.000
    C185    C    0.35421   0.05208   0.94797   1.000
    C186    C    0.62153   0.89477   0.84408   1.000
    C187    C    0.61311   0.98803   0.74401   1.000
    C188    C    0.80798   0.20749   0.03181   1.000
    C189    C    0.75769   0.29587   0.93352   1.000
    C190    C    0.63266   0.30387   0.09704   1.000
    C191    C    0.48396   0.26273   0.10397   1.000
    C192    C    0.85121   0.46312   0.04176   1.000
    C193    C    0.91797   0.53935   0.15248   1.000
    C194    C    0.10925   0.50060   0.26528   1.000
    C195    C    0.11750   0.58832   0.16158   1.000
    C196    C    0.19092   0.15406   0.07265   1.000
    C197    C    0.29323   0.25178   0.02696   1.000
    C198    C    0.96967   0.24099   0.89164   1.000
    C199    C    0.11663   0.19424   0.90342   1.000
    C200    C    0.91859   0.03089   0.65023   1.000
    C201    C    0.85173   0.94132   0.54833   1.000
    C202    C    0.11651   0.10342   0.65650   1.000
    C203    C    0.10925   0.00884   0.75497   1.000
    C204    C    0.30852   0.79223   0.46837   1.000
    C205    C    0.25996   0.70657   0.56945   1.000
    C206    C    0.13602   0.69318   0.40251   1.000
    C207    C    0.98722   0.73365   0.39254   1.000
    C208    C    0.34767   0.53920   0.45939   1.000
    C209    C    0.41064   0.46251   0.34727   1.000
    C210    C    0.60478   0.49660   0.23402   1.000
    C211    C    0.60925   0.40728   0.33651   1.000
    C212    C    0.69124   0.84097   0.42088   1.000
    C213    C    0.79352   0.74411   0.46851   1.000
    C214    C    0.47411   0.75792   0.60909   1.000
    C215    C    0.62066   0.80409   0.59346   1.000
    C216    C    0.57832   0.03521   0.15001   1.000
    C217    C    0.64844   0.94779   0.04858   1.000
    C218    C    0.38222   0.10377   0.15251   1.000
    C219    C    0.38738   0.00946   0.25188   1.000
    C220    C    0.19554   0.78844   0.96539   1.000
    C221    C    0.24576   0.70269   0.06597   1.000
    C222    C    0.37152   0.69305   0.89950   1.000
    C223    C    0.51977   0.73619   0.89224   1.000
    C224    C    0.15239   0.53359   0.96025   1.000
    C225    C    0.08615   0.45898   0.84829   1.000
    C226    C    0.89458   0.49640   0.73616   1.000
    C227    C    0.88671   0.40929   0.84029   1.000
    C228    C    0.81612   0.84460   0.92729   1.000
    C229    C    0.71117   0.74837   0.97162   1.000
    C230    C    0.03358   0.75562   0.11070   1.000
    C231    C    0.88716   0.80348   0.09781   1.000
    C232    C    0.08130   0.96648   0.34935   1.000
    C233    C    0.14862   0.05499   0.45178   1.000
    C234    C    0.88619   0.89331   0.34372   1.000
    C235    C    0.89087   0.98887   0.24614   1.000
    C236    C    0.69213   0.20742   0.53156   1.000
    C237    C    0.74214   0.29171   0.43007   1.000
    C238    C    0.86674   0.30334   0.60032   1.000
    C239    C    0.01562   0.26272   0.60768   1.000
    C240    C    0.65167   0.45934   0.53577   1.000
    C241    C    0.58946   0.53435   0.64928   1.000
    C242    C    0.39555   0.49993   0.76288   1.000
    C243    C    0.39068   0.58889   0.66010   1.000
    C244    C    0.31147   0.15437   0.57574   1.000
    C245    C    0.20744   0.25171   0.53129   1.000
    C246    C    0.52742   0.23752   0.38873   1.000
    C247    C    0.38049   0.19208   0.40345   1.000
    O248    O    0.57143   0.22362   0.03770   1.000
    O249    O    0.62352   0.18209   0.98260   1.000
    O250    O    0.54475   0.16465   0.99109   1.000
    O251    O    0.03109   0.32895   0.01282   1.000
    O252    O    0.10174   0.29980   0.02942   1.000
    O253    O    0.05358   0.26943   0.96581   1.000
    O254    O    0.49248   0.89265   0.04501   1.000
    O255    O    0.55817   0.85141   0.98880   1.000
    O256    O    0.45848   0.83343   0.00521   1.000
    O257    O    0.29513   0.79503   0.02539   1.000
    O258    O    0.24924   0.73491   0.04157   1.000
    O259    O    0.22413   0.77778   0.99128   1.000
    O260    O    0.00095   0.39132   0.05086   1.000
    O261    O    0.93738   0.35696   0.98921   1.000
    O262    O    0.33773   0.20361   0.03126   1.000
    O263    O    0.25290   0.23967   0.03826   1.000
    O264    O    0.77936   0.21871   0.00617   1.000
    O265    O    0.33436   0.85898   0.06324   1.000
    O266    O    0.37988   0.81551   0.01391   1.000
    O267    O    0.38222   0.12960   0.09403   1.000
    O268    O    0.36822   0.10376   0.99176   1.000
    O269    O    0.44530   0.14751   0.00780   1.000
    O270    O    0.88410   0.47238   0.06761   1.000
    O271    O    0.86299   0.40924   0.99959   1.000
    O272    O    0.18737   0.67205   0.05547   1.000
    O273    O    0.12324   0.61487   0.10327   1.000
    O274    O    0.14068   0.58750   0.00261   1.000
    O275    O    0.06872   0.64020   0.01277   1.000
    O276    O    0.61401   0.96143   0.07087   1.000
    O277    O    0.63502   0.89592   0.00500   1.000
    O278    O    0.17693   0.26391   0.05187   1.000
    O279    O    0.20174   0.19081   0.06110   1.000
    O280    O    0.14605   0.33529   0.08473   1.000
    O281    O    0.59719   0.28070   0.08515   1.000
    O282    O    0.52284   0.26013   0.08862   1.000
    O283    O    0.53489   0.95080   0.08349   1.000
    O284    O    0.44860   0.93740   0.09337   1.000
    O285    O    0.92293   0.78065   0.08623   1.000
    O286    O    0.99614   0.75672   0.09268   1.000
    O287    O    0.95031   0.72815   0.03561   1.000
    O288    O    0.95945   0.45287   0.08709   1.000
    O289    O    0.04213   0.42917   0.10428   1.000
    O290    O    0.36909   0.92165   0.10290   1.000
    O291    O    0.29842   0.90222   0.10794   1.000
    O292    O    0.57895   0.00514   0.12158   1.000
    O293    O    0.91748   0.51050   0.12297   1.000
    O294    O    0.64081   0.33920   0.14759   1.000
    O295    O    0.87111   0.83691   0.14750   1.000
    O296    O    0.40130   0.98717   0.14376   1.000
    O297    O    0.11658   0.40228   0.12155   1.000
    O298    O    0.18204   0.37275   0.13384   1.000
    O299    O    0.09122   0.47335   0.15759   1.000
    O300    O    0.72560   0.73262   0.15247   1.000
    O301    O    0.60403   0.68623   0.16155   1.000
    O302    O    0.38891   0.06492   0.16355   1.000
    O303    O    0.10880   0.55039   0.17447   1.000
    O304    O    0.65581   0.73447   0.17412   1.000
    O305    O    0.71240   0.79037   0.18956   1.000
    O306    O    0.39150   0.01776   0.21323   1.000
    O307    O    0.57905   0.74263   0.20113   1.000
    O308    O    0.10467   0.50652   0.22632   1.000
    O309    O    0.76455   0.22438   0.20216   1.000
    O310    O    0.04686   0.13111   0.21033   1.000
    O311    O    0.79009   0.85014   0.20277   1.000
    O312    O    0.87296   0.92961   0.22166   1.000
    O313    O    0.45786   0.61878   0.20870   1.000
    O314    O    0.71154   0.35356   0.21347   1.000
    O315    O    0.62687   0.43557   0.21608   1.000
    O316    O    0.69373   0.85413   0.23044   1.000
    O317    O    0.16932   0.08966   0.22587   1.000
    O318    O    0.78312   0.28894   0.22186   1.000
    O319    O    0.83475   0.22766   0.22243   1.000
    O320    O    0.88220   0.17457   0.22394   1.000
    O321    O    0.38891   0.62707   0.22852   1.000
    O322    O    0.44259   0.68756   0.22867   1.000
    O323    O    0.49956   0.74984   0.23099   1.000
    O324    O    0.55976   0.80824   0.24335   1.000
    O325    O    0.33741   0.57661   0.23168   1.000
    O326    O    0.80772   0.35973   0.24396   1.000
    O327    O    0.91291   0.23793   0.24477   1.000
    O328    O    0.11372   0.13564   0.23633   1.000
    O329    O    0.05552   0.19082   0.25138   1.000
    O330    O    0.59959   0.49040   0.27284   1.000
    O331    O    0.31255   0.63836   0.25362   1.000
    O332    O    0.41780   0.76015   0.25333   1.000
    O333    O    0.18868   0.14338   0.26584   1.000
    O334    O    0.89465   0.98053   0.28464   1.000
    O335    O    0.36747   0.06619   0.27865   1.000
    O336    O    0.61784   0.86384   0.25723   1.000
    O337    O    0.67333   0.91005   0.26691   1.000
    O338    O    0.83332   0.42197   0.26354   1.000
    O339    O    0.88488   0.37154   0.26696   1.000
    O340    O    0.99499   0.24839   0.26564   1.000
    O341    O    0.93845   0.31102   0.26720   1.000
    O342    O    0.55027   0.87029   0.28094   1.000
    O343    O    0.13258   0.56109   0.28368   1.000
    O344    O    0.38746   0.82311   0.27617   1.000
    O345    O    0.34027   0.76998   0.27758   1.000
    O346    O    0.28871   0.70867   0.27802   1.000
    O347    O    0.21771   0.64337   0.28621   1.000
    O348    O    0.07383   0.25420   0.29718   1.000
    O349    O    0.95454   0.38011   0.28514   1.000
    O350    O    0.27079   0.77283   0.29964   1.000
    O351    O    0.28348   0.14454   0.29776   1.000
    O352    O    0.20638   0.20497   0.31021   1.000
    O353    O    0.14597   0.65739   0.35230   1.000
    O354    O    0.36402   0.15749   0.35444   1.000
    O355    O    0.60183   0.44574   0.32409   1.000
    O356    O    0.58652   0.52332   0.34159   1.000
    O357    O    0.14973   0.26062   0.32651   1.000
    O358    O    0.09774   0.30857   0.33986   1.000
    O359    O    0.89231   0.93274   0.33343   1.000
    O360    O    0.90290   0.01065   0.35458   1.000
    O361    O    0.21879   0.26082   0.35019   1.000
    O362    O    0.61707   0.37949   0.39419   1.000
    O363    O    0.88444   0.86673   0.40152   1.000
    O364    O    0.67894   0.62245   0.36365   1.000
    O365    O    0.41148   0.49089   0.37716   1.000
    O366    O    0.08099   0.99628   0.37804   1.000
    O367    O    0.61340   0.59396   0.37711   1.000
    O368    O    0.53888   0.56835   0.39551   1.000
    O369    O    0.79791   0.09327   0.39016   1.000
    O370    O    0.64449   0.66079   0.41304   1.000
    O371    O    0.86890   0.07504   0.39580   1.000
    O372    O    0.94864   0.06062   0.40599   1.000
    O373    O    0.49019   0.23726   0.40709   1.000
    O374    O    0.02584   0.73656   0.40853   1.000
    O375    O    0.10024   0.71632   0.41351   1.000
    O376    O    0.41672   0.21454   0.41445   1.000
    O377    O    0.83276   0.13705   0.43527   1.000
    O378    O    0.03530   0.04910   0.41635   1.000
    O379    O    0.11465   0.04053   0.42926   1.000
    O380    O    0.45572   0.54676   0.41328   1.000
    O381    O    0.37999   0.52923   0.43322   1.000
    O382    O    0.49708   0.60711   0.44939   1.000
    O383    O    0.70198   0.80458   0.43334   1.000
    O384    O    0.07322   0.77379   0.46007   1.000
    O385    O    0.44553   0.26734   0.46422   1.000
    O386    O    0.99125   0.10584   0.45499   1.000
    O387    O    0.68351   0.32170   0.44097   1.000
    O388    O    0.74583   0.25994   0.45498   1.000
    O389    O    0.67676   0.73215   0.44459   1.000
    O390    O    0.60184   0.69719   0.46883   1.000
    O391    O    0.75312   0.75614   0.45716   1.000
    O392    O    0.13329   0.10559   0.49640   1.000
    O393    O    0.56525   0.35408   0.48477   1.000
    O394    O    0.63828   0.40552   0.49382   1.000
    O395    O    0.83811   0.79213   0.46391   1.000
    O396    O    0.94542   0.84868   0.48804   1.000
    O397    O    0.86721   0.89073   0.50382   1.000
    O398    O    0.36158   0.59206   0.50215   1.000
    O399    O    0.79231   0.20066   0.47242   1.000
    O400    O    0.87713   0.18113   0.48518   1.000
    O401    O    0.28018   0.78140   0.49432   1.000
    O402    O    0.52896   0.66911   0.48677   1.000
    O403    O    0.43527   0.64244   0.51209   1.000
    O404    O    0.72082   0.21780   0.50573   1.000
    O405    O    0.95588   0.16434   0.49471   1.000
    O406    O    0.05528   0.14787   0.51251   1.000
    O407    O    0.55558   0.72852   0.53311   1.000
    O408    O    0.04507   0.83266   0.50619   1.000
    O409    O    0.12397   0.81646   0.51579   1.000
    O410    O    0.47186   0.32707   0.51033   1.000
    O411    O    0.39921   0.29872   0.52849   1.000
    O412    O    0.92849   0.22318   0.54109   1.000
    O413    O    0.00930   0.89097   0.54579   1.000
    O414    O    0.50346   0.38940   0.54746   1.000
    O415    O    0.20890   0.79769   0.52811   1.000
    O416    O    0.25590   0.73857   0.54485   1.000
    O417    O    0.16271   0.20395   0.53615   1.000
    O418    O    0.24814   0.23955   0.54169   1.000
    O419    O    0.61970   0.46869   0.56244   1.000
    O420    O    0.16804   0.86081   0.56569   1.000
    O421    O    0.11724   0.12980   0.59876   1.000
    O422    O    0.31773   0.67574   0.55717   1.000
    O423    O    0.38309   0.61690   0.60250   1.000
    O424    O    0.88563   0.95603   0.57086   1.000
    O425    O    0.32458   0.26357   0.55305   1.000
    O426    O    0.30016   0.19088   0.56392   1.000
    O427    O    0.35649   0.33515   0.58423   1.000
    O428    O    0.58447   0.78143   0.58270   1.000
    O429    O    0.51119   0.75835   0.59051   1.000
    O430    O    0.96499   0.94774   0.58410   1.000
    O431    O    0.05162   0.93641   0.59494   1.000
    O432    O    0.90227   0.28029   0.58855   1.000
    O433    O    0.97671   0.25998   0.59223   1.000
    O434    O    0.54452   0.45019   0.58317   1.000
    O435    O    0.46162   0.42810   0.60135   1.000
    O436    O    0.58859   0.50620   0.61919   1.000
    O437    O    0.91906   0.00082   0.62181   1.000
    O438    O    0.63672   0.83888   0.64242   1.000
    O439    O    0.13146   0.92246   0.60524   1.000
    O440    O    0.20260   0.90475   0.61083   1.000
    O441    O    0.85738   0.33906   0.65076   1.000
    O442    O    0.38729   0.40221   0.61996   1.000
    O443    O    0.32188   0.37348   0.63351   1.000
    O444    O    0.09759   0.98665   0.64640   1.000
    O445    O    0.41389   0.47301   0.65532   1.000
    O446    O    0.78164   0.73516   0.64828   1.000
    O447    O    0.90265   0.68756   0.65906   1.000
    O448    O    0.10945   0.06432   0.66712   1.000
    O449    O    0.39827   0.55053   0.67264   1.000
    O450    O    0.85062   0.73551   0.67213   1.000
    O451    O    0.79391   0.79119   0.68806   1.000
    O452    O    0.92647   0.74210   0.70159   1.000
    O453    O    0.10582   0.01703   0.71635   1.000
    O454    O    0.40071   0.50605   0.72403   1.000
    O455    O    0.73151   0.22503   0.70070   1.000
    O456    O    0.71680   0.85187   0.69968   1.000
    O457    O    0.63294   0.93084   0.71769   1.000
    O458    O    0.45147   0.12823   0.71685   1.000
    O459    O    0.78556   0.35371   0.71575   1.000
    O460    O    0.87130   0.43559   0.71868   1.000
    O461    O    0.04609   0.61658   0.71308   1.000
    O462    O    0.81146   0.85295   0.73224   1.000
    O463    O    0.66163   0.22823   0.72163   1.000
    O464    O    0.71368   0.28921   0.72228   1.000
    O465    O    0.61402   0.17539   0.72203   1.000
    O466    O    0.32885   0.08777   0.73179   1.000
    O467    O    0.11572   0.62521   0.73126   1.000
    O468    O    0.06200   0.68563   0.73137   1.000
    O469    O    0.00528   0.74812   0.73314   1.000
    O470    O    0.94463   0.80564   0.74721   1.000
    O471    O    0.58377   0.23843   0.74477   1.000
    O472    O    0.16742   0.57488   0.73437   1.000
    O473    O    0.68988   0.35962   0.74641   1.000
    O474    O    0.38400   0.13444   0.74082   1.000
    O475    O    0.44178   0.19046   0.75412   1.000
    O476    O    0.89929   0.49075   0.77516   1.000
    O477    O    0.19286   0.63708   0.75429   1.000
    O478    O    0.08732   0.75866   0.75424   1.000
    O479    O    0.60990   0.98007   0.78278   1.000
    O480    O    0.30828   0.14378   0.76808   1.000
    O481    O    0.12883   0.06725   0.78005   1.000
    O482    O    0.88634   0.86082   0.76194   1.000
    O483    O    0.83070   0.90679   0.77211   1.000
    O484    O    0.50188   0.24895   0.76650   1.000
    O485    O    0.55905   0.31112   0.76922   1.000
    O486    O    0.66503   0.42152   0.76791   1.000
    O487    O    0.61311   0.37134   0.77020   1.000
    O488    O    0.37359   0.56105   0.78085   1.000
    O489    O    0.95309   0.86549   0.78814   1.000
    O490    O    0.11785   0.82197   0.77554   1.000
    O491    O    0.16547   0.76898   0.77663   1.000
    O492    O    0.21728   0.70783   0.77679   1.000
    O493    O    0.28901   0.64320   0.78419   1.000
    O494    O    0.42222   0.25631   0.79589   1.000
    O495    O    0.54385   0.37997   0.78901   1.000
    O496    O    0.23569   0.77230   0.79686   1.000
    O497    O    0.21265   0.14677   0.79770   1.000
    O498    O    0.28937   0.20777   0.80855   1.000
    O499    O    0.36157   0.65761   0.84915   1.000
    O500    O    0.13251   0.15995   0.85427   1.000
    O501    O    0.89535   0.44719   0.82723   1.000
    O502    O    0.91289   0.52431   0.84378   1.000
    O503    O    0.34553   0.26428   0.82307   1.000
    O504    O    0.39695   0.31303   0.83489   1.000
    O505    O    0.61411   0.93344   0.83282   1.000
    O506    O    0.60116   0.01103   0.85237   1.000
    O507    O    0.27586   0.26589   0.84502   1.000
    O508    O    0.88074   0.38233   0.89886   1.000
    O509    O    0.62156   0.86941   0.90275   1.000
    O510    O    0.42294   0.99350   0.87522   1.000
    O511    O    0.82250   0.62551   0.86681   1.000
    O512    O    0.08655   0.48745   0.87814   1.000
    O513    O    0.88770   0.59569   0.87947   1.000
    O514    O    0.96195   0.56855   0.89706   1.000
    O515    O    0.70463   0.09514   0.88857   1.000
    O516    O    0.63375   0.07625   0.89339   1.000
    O517    O    0.55405   0.06090   0.90277   1.000
    O518    O    0.85838   0.66291   0.91605   1.000
    O519    O    0.00733   0.24026   0.90930   1.000
    O520    O    0.48089   0.73825   0.90761   1.000
    O521    O    0.40676   0.71668   0.91124   1.000
    O522    O    0.08081   0.21688   0.91519   1.000
    O523    O    0.46759   0.04784   0.91289   1.000
    O524    O    0.38845   0.03794   0.92570   1.000
    O525    O    0.66889   0.13851   0.93332   1.000
    O526    O    0.04453   0.54475   0.91435   1.000
    O527    O    0.11967   0.52476   0.93412   1.000
    O528    O    0.00529   0.60627   0.95065   1.000
    O529    O    0.51042   0.10573   0.95119   1.000
    O530    O    0.43212   0.77420   0.95860   1.000
    O531    O    0.80439   0.80807   0.93875   1.000
    O532    O    0.81623   0.32562   0.94548   1.000
    O533    O    0.75421   0.26290   0.95703   1.000
    O534    O    0.82791   0.73477   0.94838   1.000
    O535    O    0.90254   0.69823   0.97156   1.000
    O536    O    0.75192   0.75996   0.96091   1.000
    O537    O    0.66638   0.79621   0.96652   1.000
    O538    O    0.70832   0.20220   0.97180   1.000
    O539    O    0.97520   0.66873   0.98857   1.000
    O540    O    0.62911   0.39091   0.26733   1.000
    O541    O    0.37115   0.60553   0.72945   1.000
loop_
    _geom_bond_atom_site_label_1
    _geom_bond_atom_site_label_2
    _geom_bond_distance
    _geom_bond_site_symmetry_2
    _ccdc_geom_bond_type
    C63    O248      0.75568      .   S
    C64    O248      0.75568      .   S
    C63    O249      0.70179  1_554   S
    C61    O249      0.70179      .   S
    C63    O250      0.67082  1_554   S
    C168   O250      0.67082      .   S
    C72    O251      0.64615      .   S
    C169   O251      0.64615      .   S
    C72    O252      0.70185      .   S
    C70    O252      0.70185      .   S
    C72    O253      0.75653  1_554   S
    C73    O253      0.75653      .   S
    C176   O254      0.66829      .   S
    C113   O254      0.66829      .   S
    C176   O255      1.03101  1_554   S
    C8     O255      1.03101      .   S
    C176   O256      0.67137      .   S
    C119   O256      0.67137  1_556   S
    C118   O257      0.75741      .   S
    C117   O257      0.75741      .   S
    C118   O258      0.64886      .   S
    C221   O258      0.64886      .   S
    C118   O259      0.61895  1_554   S
    C220   O259      0.61895      .   S
    C169   O260      0.66675      .   S
    C66    O260      0.66675      .   S
    C169   O261      1.04807  1_454   S
    C10    O261      1.04807      .   S
    C197   O262      0.98372      .   S
    C0     O262      0.98372      .   S
    C197   O263      0.64820      .   S
    C71    O263      0.64820      .   S
    C188   O264      0.61909      .   S
    C62    O264      0.61909  1_556   S
    C117   O265      0.70126      .   S
    C116   O265      0.70126      .   S
    C117   O266      0.70194      .   S
    C119   O266      0.70194  1_556   S
    C0     O267      1.04306      .   S
    C218   O267      1.04306      .   S
    C0     O268      1.03672  1_554   S
    C185   O268      1.03672      .   S
    C0     O269      1.02943      .   S
    C168   O269      1.02943  1_556   S
    C192   O270      0.64467      .   S
    C65    O270      0.64467      .   S
    C192   O271      1.03917  1_554   S
    C10    O271      1.03917      .   S
    C2     O272      0.98152      .   S
    C221   O272      0.98152      .   S
    C2     O273      1.04884      .   S
    C195   O273      1.04884      .   S
    C2     O274      1.04133      .   S
    C224   O274      1.04133  1_556   S
    C2     O275      1.02143      .   S
    C177   O275      1.02143  1_556   S
    C217   O276      0.64459      .   S
    C112   O276      0.64459      .   S
    C217   O277      1.03508      .   S
    C8     O277      1.03508  1_556   S
    C71    O278      0.75738      .   S
    C70    O278      0.75738      .   S
    C71    O279      0.61951      .   S
    C196   O279      0.61951      .   S
    C70    O280      0.70123      .   S
    C69    O280      0.70123      .   S
    C64    O281      0.64795      .   S
    C190   O281      0.64795      .   S
    C64    O282      0.62087      .   S
    C191   O282      0.62087      .   S
    C113   O283      0.76094      .   S
    C112   O283      0.76094      .   S
    C113   O284      0.70027      .   S
    C114   O284      0.70027      .   S
    C129   O285      0.64786      .   S
    C231   O285      0.64786      .   S
    C129   O286      0.62022      .   S
    C230   O286      0.62022  1_455   S
    C129   O287      0.75660      .   S
    C128   O287      0.75660  1_556   S
    C66    O288      0.76199  1_455   S
    C65    O288      0.76199      .   S
    C66    O289      0.70089      .   S
    C67    O289      0.70089      .   S
    C116   O290      0.69819      .   S
    C114   O290      0.69819      .   S
    C116   O291      0.54523      .   S
    C36    O291      0.54523      .   S
    C112   O292      0.62291  1_565   S
    C216   O292      0.62291      .   S
    C65    O293      0.62276      .   S
    C193   O293      0.62276      .   S
    C190   O294      0.94953      .   S
    C5     O294      0.94953      .   S
    C231   O295      0.94624      .   S
    C15    O295      0.94624      .   S
    C114   O296      0.74828      .   S
    C115   O296      0.74828  1_545   S
    C69    O297      0.69923      .   S
    C67    O297      0.69923      .   S
    C69    O298      0.54535      .   S
    C17    O298      0.54535      .   S
    C67    O299      0.74676      .   S
    C68    O299      0.74676      .   S
    C18    O300      0.54379      .   S
    C74    O300      0.54379      .   S
    C19    O301      0.54361      .   S
    C75    O301      0.54361      .   S
    C218   O302      0.63372      .   S
    C115   O302      0.63372      .   S
    C195   O303      0.63701      .   S
    C68    O303      0.63701      .   S
    C74    O304      0.69174      .   S
    C75    O304      0.69174      .   S
    C74    O305      0.67834      .   S
    C170   O305      0.67834      .   S
    C115   O306      0.64538      .   S
    C219   O306      0.64538      .   S
    C75    O307      0.70377      .   S
    C76    O307      0.70377      .   S
    C68    O308      0.64250      .   S
    C194   O308      0.64250      .   S
    C35    O309      0.54416      .   S
    C111   O309      0.54416      .   S
    C30    O310      0.54335      .   S
    C105   O310      0.54335      .   S
    C15    O311      1.00507      .   S
    C170   O311      1.00507      .   S
    C15    O312      0.99036      .   S
    C235   O312      0.99036      .   S
    C23    O313      0.54376      .   S
    C80    O313      0.54376      .   S
    C5     O314      1.00517      .   S
    C175   O314      1.00517      .   S
    C5     O315      1.00298      .   S
    C210   O315      1.00298      .   S
    C170   O316      0.67400      .   S
    C78    O316      0.67400      .   S
    C31    O317      0.54295      .   S
    C106   O317      0.54295      .   S
    C111   O318      0.67585      .   S
    C175   O318      0.67585      .   S
    C111   O319      0.69222      .   S
    C110   O319      0.69222      .   S
    C34    O320      0.54387      .   S
    C110   O320      0.54387      .   S
    C80    O321      0.69263      .   S
    C79    O321      0.69263      .   S
    C80    O322      0.70248      .   S
    C81    O322      0.70248      .   S
    C76    O323      0.74010      .   S
    C81    O323      0.74010      .   S
    C76    O324      0.70071      .   S
    C77    O324      0.70071      .   S
    C22    O325      0.54392      .   S
    C79    O325      0.54392      .   S
    C175   O326      0.67546      .   S
    C107   O326      0.67546      .   S
    C110   O327      0.70129      .   S
    C109   O327      0.70129      .   S
    C105   O328      0.69326      .   S
    C106   O328      0.69326      .   S
    C105   O329      0.70054      .   S
    C104   O329      0.70054      .   S
    C210   O330      0.64244      .   S
    C96    O330      0.64244      .   S
    C79    O331      0.67542      .   S
    C171   O331      0.67542      .   S
    C81    O332      0.70166      .   S
    C82    O332      0.70166      .   S
    C106   O333      0.67427      .   S
    C174   O333      0.67427      .   S
    C235   O334      0.64268      .   S
    C143   O334      0.64268      .   S
    C219   O335      0.97882      .   S
    C11    O335      0.97882      .   S
    C78    O336      0.69315      .   S
    C77    O336      0.69315      .   S
    C78    O337      0.54309      .   S
    C21    O337      0.54309      .   S
    C107   O338      0.54413      .   S
    C32    O338      0.54413      .   S
    C107   O339      0.69288      .   S
    C108   O339      0.69288      .   S
    C109   O340      0.73937      .   S
    C104   O340      0.73937  1_455   S
    C109   O341      0.70246      .   S
    C108   O341      0.70246      .   S
    C77    O342      0.54324      .   S
    C20    O342      0.54324      .   S
    C194   O343      1.00326      .   S
    C1     O343      1.00326      .   S
    C82    O344      0.54369      .   S
    C24    O344      0.54369      .   S
    C82    O345      0.69229      .   S
    C83    O345      0.69229      .   S
    C171   O346      0.67595      .   S
    C83    O346      0.67595      .   S
    C171   O347      1.00233      .   S
    C1     O347      1.00233      .   S
    C104   O348      0.70359      .   S
    C103   O348      0.70359      .   S
    C108   O349      0.54413      .   S
    C33    O349      0.54413      .   S
    C83    O350      0.54398      .   S
    C25    O350      0.54398      .   S
    C174   O351      1.00349      .   S
    C11    O351      1.00349      .   S
    C174   O352      0.67865      .   S
    C102   O352      0.67865      .   S
    C1     O353      0.95269      .   S
    C206   O353      0.95269      .   S
    C11    O354      0.94687      .   S
    C247   O354      0.94687      .   S
    C96    O355      0.63777      .   S
    C211   O355      0.63777      .   S
    C96    O356      0.74639      .   S
    C95    O356      0.74639      .   S
    C103   O357      0.69162      .   S
    C102   O357      0.69162      .   S
    C103   O358      0.54380      .   S
    C29    O358      0.54380      .   S
    C143   O359      0.63704      .   S
    C234   O359      0.63704      .   S
    C143   O360      0.74760  1_565   S
    C142   O360      0.74760      .   S
    C102   O361      0.54362      .   S
    C28    O361      0.54362      .   S
    C211   O362      1.05064      .   S
    C6     O362      1.05064      .   S
    C234   O363      1.03822      .   S
    C4     O363      1.03822      .   S
    C27    O364      0.54530      .   S
    C97    O364      0.54530      .   S
    C209   O365      0.62263      .   S
    C93    O365      0.62263      .   S
    C232   O366      0.62292      .   S
    C140   O366      0.62292  1_545   S
    C95    O367      0.69928      .   S
    C97    O367      0.69928      .   S
    C95    O368      0.70114      .   S
    C94    O368      0.70114      .   S
    C46    O369      0.54522      .   S
    C144   O369      0.54522      .   S
    C97    O370      0.70111      .   S
    C98    O370      0.70111      .   S
    C142   O371      0.69841      .   S
    C144   O371      0.69841      .   S
    C142   O372      0.70014      .   S
    C141   O372      0.70014      .   S
    C246   O373      0.62049      .   S
    C157   O373      0.62049      .   S
    C207   O374      0.62094  1_655   S
    C92    O374      0.62094      .   S
    C206   O375      0.64818      .   S
    C92    O375      0.64818      .   S
    C247   O376      0.64795      .   S
    C157   O376      0.64795      .   S
    C144   O377      0.70148      .   S
    C145   O377      0.70148      .   S
    C140   O378      0.76135      .   S
    C141   O378      0.76135  1_655   S
    C140   O379      0.64419      .   S
    C233   O379      0.64419      .   S
    C93    O380      0.76248      .   S
    C94    O380      0.76248      .   S
    C93    O381      0.64469      .   S
    C208   O381      0.64469      .   S
    C94    O382      0.66831      .   S
    C173   O382      0.66831      .   S
    C212   O383      0.61944      .   S
    C99    O383      0.61944      .   S
    C92    O384      0.75678      .   S
    C91    O384      0.75678      .   S
    C157   O385      0.75677      .   S
    C156   O385      0.75677      .   S
    C141   O386      0.66809      .   S
    C180   O386      0.66809      .   S
    C237   O387      0.98122      .   S
    C6     O387      0.98122      .   S
    C237   O388      0.64901      .   S
    C146   O388      0.64901      .   S
    C98    O389      0.75765      .   S
    C99    O389      0.75765      .   S
    C98    O390      0.70195      .   S
    C100   O390      0.70195      .   S
    C99    O391      0.64834      .   S
    C213   O391      0.64834      .   S
    C233   O392      1.03800      .   S
    C12    O392      1.03800      .   S
    C6     O393      1.02089      .   S
    C181   O393      1.02089      .   S
    C6     O394      1.04036      .   S
    C240   O394      1.04036      .   S
    C4     O395      0.98401      .   S
    C213   O395      0.98401      .   S
    C4     O396      1.03136      .   S
    C172   O396      1.03136  1_455   S
    C4     O397      1.03732      .   S
    C201   O397      1.03732      .   S
    C208   O398      1.03899      .   S
    C14    O398      1.03899      .   S
    C145   O399      0.75738      .   S
    C146   O399      0.75738      .   S
    C145   O400      0.70207      .   S
    C147   O400      0.70207      .   S
    C204   O401      0.61895      .   S
    C90    O401      0.61895      .   S
    C173   O402      0.66999      .   S
    C100   O402      0.66999      .   S
    C173   O403      1.02184      .   S
    C14    O403      1.02184      .   S
    C146   O404      0.61909      .   S
    C236   O404      0.61909      .   S
    C180   O405      0.67119      .   S
    C147   O405      0.67119      .   S
    C180   O406      1.02889  1_655   S
    C12    O406      1.02889      .   S
    C100   O407      0.75651      .   S
    C101   O407      0.75651      .   S
    C91    O408      0.67122      .   S
    C172   O408      0.67122      .   S
    C91    O409      0.70183      .   S
    C89    O409      0.70183      .   S
    C156   O410      0.66992      .   S
    C181   O410      0.66992      .   S
    C156   O411      0.70182      .   S
    C154   O411      0.70182      .   S
    C147   O412      0.75728      .   S
    C148   O412      0.75728      .   S
    C172   O413      0.66858      .   S
    C85    O413      0.66858      .   S
    C181   O414      0.66834      .   S
    C150   O414      0.66834      .   S
    C90    O415      0.75675      .   S
    C89    O415      0.75675      .   S
    C90    O416      0.64889      .   S
    C205   O416      0.64889      .   S
    C245   O417      0.98309      .   S
    C12    O417      0.98309      .   S
    C245   O418      0.64857      .   S
    C155   O418      0.64857      .   S
    C240   O419      0.64451      .   S
    C149   O419      0.64451      .   S
    C89    O420      0.70091      .   S
    C88    O420      0.70091      .   S
    C12    O421      1.03591      .   S
    C202   O421      1.03591      .   S
    C14    O422      0.97954      .   S
    C205   O422      0.97954      .   S
    C14    O423      1.05064      .   S
    C243   O423      1.05064      .   S
    C201   O424      0.64463      .   S
    C84    O424      0.64463      .   S
    C155   O425      0.75709      .   S
    C154   O425      0.75709      .   S
    C155   O426      0.61933      .   S
    C244   O426      0.61933      .   S
    C154   O427      0.70102      .   S
    C153   O427      0.70102      .   S
    C101   O428      0.64816      .   S
    C215   O428      0.64816      .   S
    C101   O429      0.62026      .   S
    C214   O429      0.62026      .   S
    C85    O430      0.76123  1_455   S
    C84    O430      0.76123      .   S
    C85    O431      0.70053      .   S
    C86    O431      0.70053      .   S
    C148   O432      0.64756      .   S
    C238   O432      0.64756      .   S
    C148   O433      0.62118      .   S
    C239   O433      0.62118  1_455   S
    C150   O434      0.76253      .   S
    C149   O434      0.76253      .   S
    C150   O435      0.70120      .   S
    C151   O435      0.70120      .   S
    C149   O436      0.62272      .   S
    C241   O436      0.62272      .   S
    C84    O437      0.62284  1_565   S
    C200   O437      0.62284      .   S
    C215   O438      0.94625      .   S
    C3     O438      0.94625      .   S
    C88    O439      0.69834      .   S
    C86    O439      0.69834      .   S
    C88    O440      0.54520      .   S
    C26    O440      0.54520      .   S
    C238   O441      0.95365      .   S
    C9     O441      0.95365      .   S
    C153   O442      0.69916      .   S
    C151   O442      0.69916      .   S
    C153   O443      0.54529      .   S
    C47    O443      0.54529      .   S
    C86    O444      0.74812      .   S
    C87    O444      0.74812  1_545   S
    C151   O445      0.74640      .   S
    C152   O445      0.74640      .   S
    C48    O446      0.54359      .   S
    C158   O446      0.54359      .   S
    C49    O447      0.54378      .   S
    C159   O447      0.54378      .   S
    C202   O448      0.63605      .   S
    C87    O448      0.63605      .   S
    C243   O449      0.63761      .   S
    C152   O449      0.63761      .   S
    C158   O450      0.69164      .   S
    C159   O450      0.69164      .   S
    C158   O451      0.67864      .   S
    C182   O451      0.67864      .   S
    C159   O452      0.70361      .   S
    C160   O452      0.70361      .   S
    C87    O453      0.64341      .   S
    C203   O453      0.64341      .   S
    C152   O454      0.64254      .   S
    C242   O454      0.64254      .   S
    C45    O455      0.54398      .   S
    C139   O455      0.54398      .   S
    C3     O456      1.00503      .   S
    C182   O456      1.00503      .   S
    C3     O457      0.98159      .   S
    C187   O457      0.98159      .   S
    C40    O458      0.54324      .   S
    C133   O458      0.54324      .   S
    C9     O459      1.00192      .   S
    C179   O459      1.00192      .   S
    C9     O460      1.00399      .   S
    C226   O460      1.00399      .   S
    C53    O461      0.54405      .   S
    C164   O461      0.54405      .   S
    C182   O462      0.67422      .   S
    C162   O462      0.67422      .   S
    C139   O463      0.69213      .   S
    C138   O463      0.69213      .   S
    C139   O464      0.67586      .   S
    C179   O464      0.67586      .   S
    C44    O465      0.54366      .   S
    C138   O465      0.54366      .   S
    C41    O466      0.54307      .   S
    C134   O466      0.54307      .   S
    C164   O467      0.69272      .   S
    C163   O467      0.69272      .   S
    C164   O468      0.70250      .   S
    C165   O468      0.70250      .   S
    C160   O469      0.73945  1_655   S
    C165   O469      0.73945      .   S
    C160   O470      0.70054      .   S
    C161   O470      0.70054      .   S
    C138   O471      0.70157      .   S
    C137   O471      0.70157      .   S
    C52    O472      0.54409      .   S
    C163   O472      0.54409      .   S
    C179   O473      0.67534      .   S
    C135   O473      0.67534      .   S
    C133   O474      0.69311      .   S
    C134   O474      0.69311      .   S
    C133   O475      0.70075      .   S
    C132   O475      0.70075      .   S
    C226   O476      0.64242      .   S
    C124   O476      0.64242      .   S
    C163   O477      0.67553      .   S
    C183   O477      0.67553      .   S
    C165   O478      0.70130      .   S
    C166   O478      0.70130      .   S
    C187   O479      0.64489      .   S
    C59    O479      0.64489      .   S
    C134   O480      0.67407      .   S
    C178   O480      0.67407      .   S
    C203   O481      0.98906      .   S
    C7     O481      0.98906      .   S
    C162   O482      0.69336      .   S
    C161   O482      0.69336      .   S
    C162   O483      0.54293      .   S
    C51    O483      0.54293      .   S
    C137   O484      0.73999      .   S
    C132   O484      0.73999      .   S
    C137   O485      0.70252      .   S
    C136   O485      0.70252      .   S
    C135   O486      0.54397      .   S
    C42    O486      0.54397      .   S
    C135   O487      0.69262      .   S
    C136   O487      0.69262      .   S
    C242   O488      1.00356      .   S
    C13    O488      1.00356      .   S
    C161   O489      0.54330      .   S
    C50    O489      0.54330      .   S
    C166   O490      0.54386      .   S
    C54    O490      0.54386      .   S
    C166   O491      0.69229      .   S
    C167   O491      0.69229      .   S
    C183   O492      0.67583      .   S
    C167   O492      0.67583      .   S
    C183   O493      1.00296      .   S
    C13    O493      1.00296      .   S
    C132   O494      0.70370      .   S
    C131   O494      0.70370      .   S
    C136   O495      0.54374      .   S
    C43    O495      0.54374      .   S
    C167   O496      0.54406      .   S
    C55    O496      0.54406      .   S
    C178   O497      1.00339      .   S
    C7     O497      1.00339      .   S
    C178   O498      0.67837      .   S
    C130   O498      0.67837      .   S
    C13    O499      0.95135      .   S
    C222   O499      0.95135      .   S
    C7     O500      0.94489      .   S
    C199   O500      0.94489      .   S
    C124   O501      0.63746      .   S
    C227   O501      0.63746      .   S
    C124   O502      0.74687      .   S
    C123   O502      0.74687      .   S
    C131   O503      0.69167      .   S
    C130   O503      0.69167      .   S
    C131   O504      0.54354      .   S
    C39    O504      0.54354      .   S
    C59    O505      0.63419      .   S
    C186   O505      0.63419      .   S
    C59    O506      0.74810  1_565   S
    C58    O506      0.74810      .   S
    C130   O507      0.54382      .   S
    C38    O507      0.54382      .   S
    C227   O508      1.05578      .   S
    C10    O508      1.05578      .   S
    C186   O509      1.04270      .   S
    C8     O509      1.04270      .   S
    C184   O510      0.62291      .   S
    C56    O510      0.62291  1_545   S
    C37    O511      0.54535      .   S
    C125   O511      0.54535      .   S
    C225   O512      0.62292      .   S
    C121   O512      0.62292      .   S
    C123   O513      0.69937      .   S
    C125   O513      0.69937      .   S
    C123   O514      0.70097      .   S
    C122   O514      0.70097  1_455   S
    C16    O515      0.54526      .   S
    C60    O515      0.54526      .   S
    C58    O516      0.69851      .   S
    C60    O516      0.69851      .   S
    C58    O517      0.70032      .   S
    C57    O517      0.70032      .   S
    C125   O518      0.70142      .   S
    C126   O518      0.70142      .   S
    C198   O519      0.62008  1_655   S
    C73    O519      0.62008      .   S
    C223   O520      0.62077      .   S
    C120   O520      0.62077      .   S
    C222   O521      0.64847      .   S
    C120   O521      0.64847      .   S
    C199   O522      0.64784      .   S
    C73    O522      0.64784      .   S
    C56    O523      0.76131      .   S
    C57    O523      0.76131      .   S
    C56    O524      0.64452      .   S
    C185   O524      0.64452      .   S
    C60    O525      0.70113      .   S
    C61    O525      0.70113      .   S
    C121   O526      0.76180      .   S
    C122   O526      0.76180      .   S
    C121   O527      0.64464      .   S
    C224   O527      0.64464      .   S
    C122   O528      0.66821      .   S
    C177   O528      0.66821      .   S
    C57    O529      0.66826      .   S
    C168   O529      0.66826      .   S
    C120   O530      0.75666      .   S
    C119   O530      0.75666      .   S
    C228   O531      0.61936      .   S
    C127   O531      0.61936      .   S
    C189   O532      0.98080      .   S
    C10    O532      0.98080      .   S
    C189   O533      0.64870      .   S
    C62    O533      0.64870      .   S
    C126   O534      0.75815      .   S
    C127   O534      0.75815      .   S
    C126   O535      0.70221      .   S
    C128   O535      0.70221      .   S
    C127   O536      0.64867      .   S
    C229   O536      0.64867      .   S
    C8     O537      0.98441      .   S
    C229   O537      0.98441      .   S
    C61    O538      0.75731      .   S
    C62    O538      0.75731      .   S
    C177   O539      0.66992  1_455   S
    C128   O539      0.66992      .   S
    C211   O540      1.16073      .   S
    C5     O540      1.16073      .   S
    C243   O541      1.16262      .   S
    C13    O541      1.16262      .   S
