# CIF file generated by openbabel 2.4.90, see http://openbabel.sf.net
data_I
_chemical_name_common ''
_cell_length_a 18.424
_cell_length_b 18.433
_cell_length_c 18.433
_cell_angle_alpha 60.144
_cell_angle_beta 60.154
_cell_angle_gamma 60.156
_space_group_name_H-M_alt 'P 1'
_space_group_name_Hall 'P 1'
loop_
    _symmetry_equiv_pos_as_xyz
    x,y,z
loop_
    _atom_site_label
    _atom_site_type_symbol
    _atom_site_fract_x
    _atom_site_fract_y
    _atom_site_fract_z
    _atom_site_occupancy
    Zr0     Zr   0.20661   0.38047   0.20672   1.000
    Zr1     Zr   0.38048   0.20664   0.20664   1.000
    Zr2     Zr   0.20638   0.20636   0.20634   1.000
    Zr3     Zr   0.20661   0.20673   0.38047   1.000
    Zr4     Zr   0.61955   0.79334   0.79333   1.000
    Zr5     Zr   0.79343   0.61951   0.79325   1.000
    Zr6     Zr   0.79366   0.79362   0.79363   1.000
    Zr7     Zr   0.79342   0.79325   0.61950   1.000
    Zr8     Zr   0.11097   0.38896   0.11096   1.000
    Zr9     Zr   0.38904   0.11112   0.38911   1.000
    Zr10    Zr   0.11099   0.11095   0.38895   1.000
    Zr11    Zr   0.38903   0.38911   0.11114   1.000
    Zr12    Zr   0.11112   0.38910   0.38909   1.000
    Zr13    Zr   0.38897   0.11096   0.11095   1.000
    Zr14    Zr   0.61106   0.88902   0.88900   1.000
    Zr15    Zr   0.88891   0.61088   0.61088   1.000
    Zr16    Zr   0.88904   0.88903   0.61102   1.000
    Zr17    Zr   0.61100   0.61087   0.88880   1.000
    Zr18    Zr   0.61100   0.88885   0.61086   1.000
    Zr19    Zr   0.88906   0.61103   0.88901   1.000
    Zr20    Zr   0.24997   0.25001   0.25001   1.000
    Zr21    Zr   0.75006   0.74997   0.74996   1.000
    Zr22    Zr   0.13320   0.42858   0.13317   1.000
    Zr23    Zr   0.42862   0.13337   0.30533   1.000
    Zr24    Zr   0.13295   0.30516   0.13295   1.000
    Zr25    Zr   0.30523   0.13326   0.42870   1.000
    Zr26    Zr   0.13294   0.13298   0.30515   1.000
    Zr27    Zr   0.42862   0.30534   0.13335   1.000
    Zr28    Zr   0.13320   0.13318   0.42857   1.000
    Zr29    Zr   0.30523   0.42872   0.13324   1.000
    Zr30    Zr   0.13329   0.30532   0.42869   1.000
    Zr31    Zr   0.42863   0.13317   0.13310   1.000
    Zr32    Zr   0.13329   0.42869   0.30531   1.000
    Zr33    Zr   0.30514   0.13295   0.13293   1.000
    Zr34    Zr   0.57141   0.86681   0.86681   1.000
    Zr35    Zr   0.86674   0.57129   0.69466   1.000
    Zr36    Zr   0.69490   0.86704   0.86704   1.000
    Zr37    Zr   0.86674   0.69466   0.57128   1.000
    Zr38    Zr   0.86710   0.86701   0.69482   1.000
    Zr39    Zr   0.69481   0.57126   0.86670   1.000
    Zr40    Zr   0.86683   0.86681   0.57140   1.000
    Zr41    Zr   0.57142   0.69465   0.86662   1.000
    Zr42    Zr   0.69480   0.86673   0.57125   1.000
    Zr43    Zr   0.86683   0.57140   0.86680   1.000
    Zr44    Zr   0.57141   0.86662   0.69464   1.000
    Zr45    Zr   0.86709   0.69482   0.86700   1.000
    O46     O    0.34706   0.12195   0.12194   1.000
    O47     O    0.40880   0.12206   0.12202   1.000
    O48     O    0.12196   0.34706   0.12196   1.000
    O49     O    0.12209   0.40877   0.12207   1.000
    O50     O    0.34713   0.40892   0.12219   1.000
    O51     O    0.40882   0.34723   0.12224   1.000
    O52     O    0.25576   0.16965   0.16963   1.000
    O53     O    0.16966   0.25576   0.16965   1.000
    O54     O    0.40455   0.16991   0.16987   1.000
    O55     O    0.16990   0.40452   0.16994   1.000
    O56     O    0.25592   0.40459   0.16998   1.000
    O57     O    0.40455   0.25599   0.16999   1.000
    O58     O    0.16966   0.16967   0.25575   1.000
    O59     O    0.31523   0.22833   0.22833   1.000
    O60     O    0.40455   0.17000   0.25598   1.000
    O61     O    0.22829   0.31524   0.22836   1.000
    O62     O    0.16995   0.40458   0.25601   1.000
    O63     O    0.12196   0.12197   0.34705   1.000
    O64     O    0.12221   0.40890   0.34720   1.000
    O65     O    0.40883   0.12224   0.34722   1.000
    O66     O    0.16991   0.16995   0.40452   1.000
    O67     O    0.16995   0.25602   0.40458   1.000
    O68     O    0.25592   0.16999   0.40459   1.000
    O69     O    0.12210   0.12207   0.40876   1.000
    O70     O    0.12221   0.34721   0.40889   1.000
    O71     O    0.34713   0.12219   0.40890   1.000
    O72     O    0.65290   0.87779   0.59105   1.000
    O73     O    0.74411   0.82999   0.59537   1.000
    O74     O    0.87783   0.65277   0.59108   1.000
    O75     O    0.83008   0.74396   0.59539   1.000
    O76     O    0.87794   0.87792   0.59121   1.000
    O77     O    0.83013   0.83003   0.59545   1.000
    O78     O    0.59121   0.87774   0.65275   1.000
    O79     O    0.87783   0.59109   0.65277   1.000
    O80     O    0.87807   0.87802   0.65292   1.000
    O81     O    0.59548   0.82998   0.74399   1.000
    O82     O    0.83008   0.59540   0.74396   1.000
    O83     O    0.83038   0.83031   0.74423   1.000
    O84     O    0.77174   0.68474   0.77160   1.000
    O85     O    0.68481   0.77166   0.77164   1.000
    O86     O    0.74412   0.59539   0.82998   1.000
    O87     O    0.83013   0.59546   0.83002   1.000
    O88     O    0.59549   0.74399   0.82998   1.000
    O89     O    0.59548   0.83008   0.83007   1.000
    O90     O    0.83038   0.74422   0.83031   1.000
    O91     O    0.74428   0.83033   0.83034   1.000
    O92     O    0.59121   0.65276   0.87771   1.000
    O93     O    0.65291   0.59107   0.87775   1.000
    O94     O    0.87795   0.59122   0.87790   1.000
    O95     O    0.59124   0.87792   0.87790   1.000
    O96     O    0.87808   0.65292   0.87800   1.000
    O97     O    0.65298   0.87803   0.87802   1.000
    O98     O    0.22818   0.22819   0.22818   1.000
    O99     O    0.22829   0.22837   0.31524   1.000
    O100    O    0.77186   0.77180   0.77179   1.000
    O101    O    0.77174   0.77161   0.68473   1.000
    N102    N    0.50002   0.49999   0.99997   1.000
    O103    O    0.45886   0.45888   0.04119   1.000
    O104    O    0.54118   0.54111   0.95876   1.000
    N105    N    0.00002   0.49999   0.99998   1.000
    O106    O    0.95887   0.54117   0.95883   1.000
    O107    O    0.04117   0.45881   0.04113   1.000
    N108    N    0.00002   0.49999   0.49996   1.000
    O109    O    0.95882   0.54111   0.54108   1.000
    O110    O    0.04122   0.45887   0.45883   1.000
    N111    N    0.50002   0.99999   0.49998   1.000
    O112    O    0.45886   0.04120   0.45887   1.000
    O113    O    0.54118   0.95878   0.54110   1.000
    N114    N    0.00002   0.99999   0.49998   1.000
    O115    O    0.95886   0.95884   0.54114   1.000
    O116    O    0.04117   0.04114   0.45880   1.000
    N117    N    0.50002   0.99999   0.99998   1.000
    O118    O    0.45883   0.04115   0.04113   1.000
    O119    O    0.54120   0.95884   0.95883   1.000
loop_
    _geom_bond_atom_site_label_1
    _geom_bond_atom_site_label_2
    _geom_bond_distance
    _geom_bond_site_symmetry_2
    _ccdc_geom_bond_type
    Zr13   O46       0.63867      .   S
    Zr33   O46       0.63867      .   S
    Zr13   O47       0.63818      .   S
    Zr31   O47       0.63818      .   S
    Zr8    O48       0.63867      .   S
    Zr24   O48       0.63867      .   S
    Zr8    O49       0.63857      .   S
    Zr22   O49       0.63857      .   S
    Zr11   O50       0.63855      .   S
    Zr29   O50       0.63855      .   S
    Zr11   O51       0.63857      .   S
    Zr27   O51       0.63857      .   S
    Zr33   O52       0.98677      .   S
    Zr2    O52       0.98677      .   S
    Zr24   O53       0.98661      .   S
    Zr2    O53       0.98661      .   S
    Zr31   O54       0.98664      .   S
    Zr1    O54       0.98664      .   S
    Zr22   O55       0.98586      .   S
    Zr0    O55       0.98586      .   S
    Zr29   O56       0.98571      .   S
    Zr0    O56       0.98571      .   S
    Zr27   O57       0.98584      .   S
    Zr1    O57       0.98584      .   S
    Zr2    O58       0.98660      .   S
    Zr26   O58       0.98660      .   S
    Zr1    O59       0.98355      .   S
    Zr20   O59       0.98355      .   S
    Zr1    O60       0.98584      .   S
    Zr23   O60       0.98584      .   S
    Zr0    O61       0.98356      .   S
    Zr20   O61       0.98356      .   S
    Zr0    O62       0.98582      .   S
    Zr32   O62       0.98582      .   S
    Zr26   O63       0.63869      .   S
    Zr10   O63       0.63869      .   S
    Zr32   O64       0.63857      .   S
    Zr12   O64       0.63857      .   S
    Zr23   O65       0.63857      .   S
    Zr9    O65       0.63857      .   S
    Zr3    O66       0.98590      .   S
    Zr28   O66       0.98590      .   S
    Zr3    O67       0.98581      .   S
    Zr30   O67       0.98581      .   S
    Zr3    O68       0.98562      .   S
    Zr25   O68       0.98562      .   S
    Zr10   O69       0.63852      .   S
    Zr28   O69       0.63852      .   S
    Zr12   O70       0.63858      .   S
    Zr30   O70       0.63858      .   S
    Zr9    O71       0.63854      .   S
    Zr25   O71       0.63854      .   S
    Zr42   O72       0.63856      .   S
    Zr18   O72       0.63856      .   S
    Zr42   O73       0.98572      .   S
    Zr7    O73       0.98572      .   S
    Zr37   O74       0.63858      .   S
    Zr15   O74       0.63858      .   S
    Zr37   O75       0.98581      .   S
    Zr7    O75       0.98581      .   S
    Zr40   O76       0.63852      .   S
    Zr16   O76       0.63852      .   S
    Zr40   O77       0.98591      .   S
    Zr7    O77       0.98591      .   S
    Zr18   O78       0.63857      .   S
    Zr44   O78       0.63857      .   S
    Zr15   O79       0.63857      .   S
    Zr35   O79       0.63857      .   S
    Zr16   O80       0.63869      .   S
    Zr38   O80       0.63869      .   S
    Zr44   O81       0.98584      .   S
    Zr4    O81       0.98584      .   S
    Zr35   O82       0.98582      .   S
    Zr5    O82       0.98582      .   S
    Zr38   O83       0.98660      .   S
    Zr6    O83       0.98660      .   S
    Zr21   O84       0.98356      .   S
    Zr5    O84       0.98356      .   S
    Zr21   O85       0.98355      .   S
    Zr4    O85       0.98355      .   S
    Zr5    O86       0.98570      .   S
    Zr39   O86       0.98570      .   S
    Zr5    O87       0.98587      .   S
    Zr43   O87       0.98587      .   S
    Zr4    O88       0.98584      .   S
    Zr41   O88       0.98584      .   S
    Zr4    O89       0.98620      .   S
    Zr34   O89       0.98620      .   S
    Zr6    O90       0.98651      .   S
    Zr45   O90       0.98651      .   S
    Zr6    O91       0.98678      .   S
    Zr36   O91       0.98678      .   S
    Zr41   O92       0.63857      .   S
    Zr17   O92       0.63857      .   S
    Zr39   O93       0.63855      .   S
    Zr17   O93       0.63855      .   S
    Zr43   O94       0.63855      .   S
    Zr19   O94       0.63855      .   S
    Zr34   O95       0.63844      .   S
    Zr14   O95       0.63844      .   S
    Zr45   O96       0.63865      .   S
    Zr19   O96       0.63865      .   S
    Zr36   O97       0.63870      .   S
    Zr14   O97       0.63870      .   S
    Zr20   O98       0.98393      .   S
    Zr2    O98       0.98393      .   S
    Zr20   O99       0.98357      .   S
    Zr3    O99       0.98357      .   S
    Zr21   O100      0.98393      .   S
    Zr6    O100      0.98393      .   S
    Zr21   O101      0.98357      .   S
    Zr7    O101      0.98357      .   S
    N102   O103      1.07328  1_556   S
    Zr11   O103      1.82094      .   S
    N102   O104      1.07328      .   S
    Zr17   O104      1.82094      .   S
    N105   O106      1.07359  1_455   S
    Zr19   O106      1.82145      .   S
    N105   O107      1.07367  1_556   S
    Zr8    O107      1.82157      .   S
    N108   O109      1.07324  1_455   S
    Zr15   O109      1.82151      .   S
    N108   O110      1.07348      .   S
    Zr12   O110      1.82065      .   S
    N111   O112      1.07324  1_565   S
    Zr9    O112      1.82088      .   S
    N111   O113      1.07333      .   S
    Zr18   O113      1.82098      .   S
    N114   O115      1.07362  1_455   S
    Zr16   O115      1.82153      .   S
    N114   O116      1.07362  1_565   S
    Zr10   O116      1.82153      .   S
    N117   O118      1.07411  1_566   S
    Zr13   O118      1.82221      .   S
    N117   O119      1.07417      .   S
    Zr14   O119      1.82244      .   S
