# CIF file generated by openbabel 2.4.90, see http://openbabel.sf.net
data_I
_chemical_name_common ''
_cell_length_a 14.01
_cell_length_b 20.56
_cell_length_c 20.561
_cell_angle_alpha 89.85
_cell_angle_beta 93.673
_cell_angle_gamma 86.353
_space_group_name_H-M_alt 'P 1'
_space_group_name_Hall 'P 1'
loop_
    _symmetry_equiv_pos_as_xyz
    x,y,z
loop_
    _atom_site_label
    _atom_site_type_symbol
    _atom_site_fract_x
    _atom_site_fract_y
    _atom_site_fract_z
    _atom_site_occupancy
    Cd0     Cd   0.37501   0.28728   0.78727   1.000
    Cd1     Cd   0.37502   0.78729   0.28726   1.000
    Cd2     Cd   0.37501   0.78729   0.78720   1.000
    Cd3     Cd   0.87502   0.28728   0.28726   1.000
    Cd4     Cd   0.87501   0.28728   0.78720   1.000
    Cd5     Cd   0.87502   0.78729   0.28720   1.000
    Cd6     Cd   0.87501   0.78729   0.78727   1.000
    Cd7     Cd   0.12499   0.21273   0.21275   1.000
    Cd8     Cd   0.12499   0.21273   0.71276   1.000
    Cd9     Cd   0.12499   0.71273   0.21275   1.000
    Cd10    Cd   0.12498   0.71274   0.71276   1.000
    Cd11    Cd   0.62499   0.21272   0.21275   1.000
    Cd12    Cd   0.62498   0.21273   0.71276   1.000
    Cd13    Cd   0.62499   0.71274   0.21275   1.000
    Cd14    Cd   0.62499   0.71274   0.71276   1.000
    Cd15    Cd   0.37502   0.28728   0.28720   1.000
    C16     C    0.33040   0.30290   0.43002   1.000
    C17     C    0.33037   0.30290   0.93004   1.000
    C18     C    0.33039   0.80291   0.43002   1.000
    C19     C    0.33039   0.80291   0.93003   1.000
    C20     C    0.83037   0.30290   0.43000   1.000
    C21     C    0.83040   0.30291   0.93003   1.000
    C22     C    0.83041   0.80291   0.43002   1.000
    C23     C    0.83039   0.80291   0.93003   1.000
    O24     O    0.96664   0.41415   0.85458   1.000
    O25     O    0.96665   0.91416   0.35457   1.000
    O26     O    0.96663   0.91417   0.85459   1.000
    C27     C    0.41961   0.43005   0.30294   1.000
    C28     C    0.41964   0.43006   0.80294   1.000
    C29     C    0.41962   0.93006   0.30294   1.000
    C30     C    0.41960   0.93006   0.80290   1.000
    C31     C    0.91963   0.43005   0.30294   1.000
    C32     C    0.91962   0.43005   0.80295   1.000
    C33     C    0.91963   0.93006   0.30290   1.000
    C34     C    0.91962   0.93006   0.80295   1.000
    C35     C    0.16961   0.19710   0.06998   1.000
    C36     C    0.16960   0.19710   0.56999   1.000
    C37     C    0.16962   0.69711   0.06998   1.000
    C38     C    0.16960   0.69711   0.56999   1.000
    C39     C    0.66962   0.19710   0.06998   1.000
    C40     C    0.66960   0.19710   0.56999   1.000
    C41     C    0.66961   0.69711   0.06998   1.000
    C42     C    0.66960   0.69711   0.56999   1.000
    C43     C    0.08039   0.06995   0.19707   1.000
    C44     C    0.08038   0.06995   0.69708   1.000
    C45     C    0.08038   0.56996   0.19707   1.000
    C46     C    0.08038   0.56996   0.69708   1.000
    C47     C    0.58039   0.06995   0.19707   1.000
    C48     C    0.58037   0.06995   0.69700   1.000
    C49     C    0.58038   0.56996   0.19707   1.000
    C50     C    0.58037   0.56996   0.69708   1.000
    O51     O    0.28330   0.35450   0.41410   1.000
    O52     O    0.28332   0.35451   0.91413   1.000
    O53     O    0.28331   0.85451   0.41412   1.000
    O54     O    0.28330   0.85451   0.91413   1.000
    O55     O    0.78333   0.35451   0.41412   1.000
    O56     O    0.78330   0.35450   0.91410   1.000
    O57     O    0.78331   0.85451   0.41410   1.000
    O58     O    0.78331   0.85452   0.91410   1.000
    O59     O    0.36286   0.25818   0.39126   1.000
    O60     O    0.36287   0.25819   0.89128   1.000
    O61     O    0.36287   0.75819   0.39120   1.000
    O62     O    0.36286   0.75819   0.89127   1.000
    O63     O    0.86287   0.25819   0.39127   1.000
    O64     O    0.86285   0.25818   0.89127   1.000
    O65     O    0.86286   0.75819   0.39126   1.000
    O66     O    0.86286   0.75819   0.89120   1.000
    O67     O    0.46666   0.41415   0.35457   1.000
    O68     O    0.46662   0.41415   0.85459   1.000
    O69     O    0.46665   0.91416   0.35457   1.000
    O70     O    0.46665   0.91417   0.85458   1.000
    O71     O    0.96665   0.41415   0.35457   1.000
    O72     O    0.38718   0.39129   0.25810   1.000
    O73     O    0.38716   0.39130   0.75820   1.000
    O74     O    0.38718   0.89130   0.25819   1.000
    O75     O    0.38718   0.89130   0.75820   1.000
    O76     O    0.88718   0.39130   0.25819   1.000
    O77     O    0.88718   0.39130   0.75820   1.000
    O78     O    0.88718   0.89131   0.25819   1.000
    O79     O    0.88718   0.89131   0.75820   1.000
    O80     O    0.21668   0.14549   0.08588   1.000
    O81     O    0.21668   0.14550   0.58589   1.000
    O82     O    0.21668   0.64550   0.08588   1.000
    O83     O    0.21669   0.64551   0.58589   1.000
    O84     O    0.71668   0.14549   0.08588   1.000
    O85     O    0.71668   0.14550   0.58589   1.000
    O86     O    0.71669   0.64550   0.08588   1.000
    O87     O    0.71668   0.64550   0.58589   1.000
    O88     O    0.13714   0.24182   0.10874   1.000
    O89     O    0.13714   0.24182   0.60875   1.000
    O90     O    0.13714   0.74183   0.10874   1.000
    O91     O    0.13714   0.74183   0.60875   1.000
    O92     O    0.63714   0.24182   0.10874   1.000
    O93     O    0.63713   0.24182   0.60875   1.000
    O94     O    0.63714   0.74183   0.10874   1.000
    O95     O    0.63714   0.74183   0.60875   1.000
    O96     O    0.03334   0.08585   0.14544   1.000
    O97     O    0.03334   0.08585   0.64545   1.000
    O98     O    0.03335   0.58586   0.14544   1.000
    O99     O    0.03334   0.58586   0.64545   1.000
    O100    O    0.53335   0.08585   0.14544   1.000
    O101    O    0.53334   0.08585   0.64545   1.000
    O102    O    0.53335   0.58586   0.14544   1.000
    O103    O    0.53335   0.58586   0.64545   1.000
    O104    O    0.11282   0.10871   0.24182   1.000
    O105    O    0.11282   0.10871   0.74183   1.000
    O106    O    0.11282   0.60872   0.24182   1.000
    O107    O    0.11282   0.60872   0.74183   1.000
    O108    O    0.61282   0.10871   0.24182   1.000
    O109    O    0.61282   0.10871   0.74183   1.000
    O110    O    0.61282   0.60872   0.24182   1.000
    O111    O    0.61282   0.60872   0.74183   1.000
loop_
    _geom_bond_atom_site_label_1
    _geom_bond_atom_site_label_2
    _geom_bond_distance
    _geom_bond_site_symmetry_2
    _ccdc_geom_bond_type
    C41    O86       1.24463      .   S
    C41    O94       1.29791      .   S
    C39    O84       1.24463      .   S
    C39    O92       1.29789      .   S
    C37    O82       1.24464      .   S
    C37    O90       1.29791      .   S
    C35    O80       1.24464      .   S
    C35    O88       1.29790      .   S
    O94    Cd13      2.23900      .   S
    O92    Cd11      2.23899      .   S
    O90    Cd9       2.23899      .   S
    O88    Cd7       2.23900      .   S
    O100   C47       1.24465      .   S
    O102   C49       1.24459      .   S
    O98    C45       1.24459      .   S
    O96    C43       1.24468      .   S
    C49    O110      1.29792      .   S
    C47    O108      1.29786      .   S
    C45    O106      1.29793      .   S
    C43    O104      1.29787      .   S
    Cd13   O110      2.23883      .   S
    Cd11   O108      2.23881      .   S
    Cd7    O104      2.23883      .   S
    Cd9    O106      2.23883      .   S
    O72    Cd15      2.23902      .   S
    O72    C27       1.29910      .   S
    O74    Cd1       2.23885      .   S
    O74    C29       1.29791      .   S
    O78    Cd5       2.23853      .   S
    O78    C33       1.29738      .   S
    O76    Cd3       2.23884      .   S
    O76    C31       1.29791      .   S
    Cd15   O59       2.24002      .   S
    Cd5    O65       2.24003      .   S
    Cd1    O61       2.23764      .   S
    Cd3    O63       2.23899      .   S
    C33    O25       1.24520      .   S
    C27    O67       1.24472      .   S
    C29    O69       1.24461      .   S
    C31    O71       1.24455      .   S
    O61    C18       1.29865      .   S
    O59    C16       1.29786      .   S
    O65    C22       1.29785      .   S
    O63    C20       1.29748      .   S
    O57    C22       1.24473      .   S
    O51    C16       1.24473      .   S
    O55    C20       1.24453      .   S
    O53    C18       1.24464      .   S
    C36    O81       1.24463      .   S
    C36    O89       1.29789      .   S
    C42    O87       1.24463      .   S
    C42    O95       1.29791      .   S
    C38    O83       1.24463      .   S
    C38    O91       1.29789      .   S
    C40    O85       1.24462      .   S
    C40    O93       1.29790      .   S
    O89    Cd8       2.23901      .   S
    O93    Cd12      2.23901      .   S
    O91    Cd10      2.23902      .   S
    O95    Cd14      2.23900      .   S
    O103   C50       1.24461      .   S
    O97    C44       1.24465      .   S
    O101   C48       1.24327      .   S
    O99    C46       1.24468      .   S
    C48    O109      1.29906      .   S
    C50    O111      1.29795      .   S
    C46    O107      1.29788      .   S
    C44    O105      1.29790      .   S
    Cd10   O107      2.23880      .   S
    Cd12   O109      2.23881      .   S
    Cd14   O111      2.23882      .   S
    Cd8    O105      2.23883      .   S
    O73    Cd0       2.23882      .   S
    O73    C28       1.29792      .   S
    O75    Cd2       2.23849      .   S
    O75    C30       1.29709      .   S
    O77    Cd4       2.23849      .   S
    O77    C32       1.29789      .   S
    O79    Cd6       2.23884      .   S
    O79    C34       1.29790      .   S
    Cd4    O64       2.24021      .   S
    Cd2    O62       2.24019      .   S
    Cd6    O66       2.23746      .   S
    Cd0    O60       2.23899      .   S
    C30    O70       1.24558      .   S
    C28    O68       1.24464      .   S
    C32    O24       1.24459      .   S
    C34    O26       1.24467      .   S
    O66    C23       1.29878      .   S
    O62    C19       1.29785      .   S
    O64    C21       1.29786      .   S
    O60    C17       1.29788      .   S
    O56    C21       1.24479      .   S
    O58    C23       1.24477      .   S
    O52    C17       1.24466      .   S
    O54    C19       1.24464      .   S
