# CIF file generated by openbabel 2.4.90, see http://openbabel.sf.net
data_I
_chemical_name_common ''
_cell_length_a 14.01
_cell_length_b 20.56
_cell_length_c 20.561
_cell_angle_alpha 89.85
_cell_angle_beta 93.673
_cell_angle_gamma 86.353
_space_group_name_H-M_alt 'P 1'
_space_group_name_Hall 'P 1'
loop_
    _symmetry_equiv_pos_as_xyz
    x,y,z
loop_
    _atom_site_label
    _atom_site_type_symbol
    _atom_site_fract_x
    _atom_site_fract_y
    _atom_site_fract_z
    _atom_site_occupancy
    Zr0     Zr   0.37502   0.28728   0.28720   1.000
    Zr1     Zr   0.37501   0.28728   0.78727   1.000
    Zr2     Zr   0.37502   0.78729   0.28726   1.000
    Zr3     Zr   0.37501   0.78729   0.78720   1.000
    Zr4     Zr   0.87502   0.28728   0.28726   1.000
    Zr5     Zr   0.87501   0.28728   0.78720   1.000
    Zr6     Zr   0.87502   0.78729   0.28720   1.000
    Zr7     Zr   0.87501   0.78729   0.78727   1.000
    Zr8     Zr   0.12499   0.21273   0.21275   1.000
    Zr9     Zr   0.12499   0.21273   0.71276   1.000
    Zr10    Zr   0.12499   0.71273   0.21275   1.000
    Zr11    Zr   0.12498   0.71274   0.71276   1.000
    Zr12    Zr   0.62499   0.21272   0.21275   1.000
    Zr13    Zr   0.62498   0.21273   0.71276   1.000
    Zr14    Zr   0.62499   0.71274   0.21275   1.000
    Zr15    Zr   0.62499   0.71274   0.71276   1.000
    Zr16    Zr   0.33040   0.30290   0.43002   1.000
    Zr17    Zr   0.33037   0.30290   0.93004   1.000
    Zr18    Zr   0.33039   0.80291   0.43002   1.000
    Zr19    Zr   0.33039   0.80291   0.93003   1.000
    Zr20    Zr   0.83037   0.30290   0.43000   1.000
    Zr21    Zr   0.83040   0.30291   0.93003   1.000
    Zr22    Zr   0.83041   0.80291   0.43002   1.000
    Zr23    Zr   0.83039   0.80291   0.93003   1.000
    Zr24    Zr   0.41961   0.43005   0.30294   1.000
    Zr25    Zr   0.41964   0.43006   0.80294   1.000
    Zr26    Zr   0.41962   0.93006   0.30294   1.000
    Zr27    Zr   0.41960   0.93006   0.80290   1.000
    Zr28    Zr   0.91963   0.43005   0.30294   1.000
    Zr29    Zr   0.91962   0.43005   0.80295   1.000
    Zr30    Zr   0.91963   0.93006   0.30290   1.000
    Zr31    Zr   0.91962   0.93006   0.80295   1.000
    Zr32    Zr   0.16961   0.19710   0.06998   1.000
    Zr33    Zr   0.16960   0.19710   0.56999   1.000
    Zr34    Zr   0.16962   0.69711   0.06998   1.000
    Zr35    Zr   0.16960   0.69711   0.56999   1.000
    Zr36    Zr   0.66962   0.19710   0.06998   1.000
    Zr37    Zr   0.66960   0.19710   0.56999   1.000
    Zr38    Zr   0.66961   0.69711   0.06998   1.000
    Zr39    Zr   0.66960   0.69711   0.56999   1.000
    Zr40    Zr   0.08039   0.06995   0.19707   1.000
    Zr41    Zr   0.08038   0.06995   0.69708   1.000
    Zr42    Zr   0.08038   0.56996   0.19707   1.000
    Zr43    Zr   0.08038   0.56996   0.69708   1.000
    Zr44    Zr   0.58039   0.06995   0.19707   1.000
    Zr45    Zr   0.58037   0.06995   0.69700   1.000
    Zr46    Zr   0.58038   0.56996   0.19707   1.000
    Zr47    Zr   0.58037   0.56996   0.69708   1.000
    Zr48    Zr   0.28330   0.35450   0.41410   1.000
    Zr49    Zr   0.28332   0.35451   0.91413   1.000
    Zr50    Zr   0.28331   0.85451   0.41412   1.000
    Zr51    Zr   0.28330   0.85451   0.91413   1.000
    Zr52    Zr   0.78333   0.35451   0.41412   1.000
    Zr53    Zr   0.78330   0.35450   0.91410   1.000
    Zr54    Zr   0.78331   0.85451   0.41410   1.000
    Zr55    Zr   0.78331   0.85452   0.91410   1.000
    Zr56    Zr   0.36286   0.25818   0.39126   1.000
    Zr57    Zr   0.36287   0.25819   0.89128   1.000
    Zr58    Zr   0.36287   0.75819   0.39120   1.000
    Zr59    Zr   0.36286   0.75819   0.89127   1.000
    Zr60    Zr   0.86287   0.25819   0.39127   1.000
    Zr61    Zr   0.86285   0.25818   0.89127   1.000
    Zr62    Zr   0.86286   0.75819   0.39126   1.000
    Zr63    Zr   0.86286   0.75819   0.89120   1.000
    Zr64    Zr   0.46666   0.41415   0.35457   1.000
    Zr65    Zr   0.46662   0.41415   0.85459   1.000
    Zr66    Zr   0.46665   0.91416   0.35457   1.000
    Zr67    Zr   0.46665   0.91417   0.85458   1.000
    Zr68    Zr   0.96665   0.41415   0.35457   1.000
    Zr69    Zr   0.96664   0.41415   0.85458   1.000
    Zr70    Zr   0.96665   0.91416   0.35457   1.000
    Zr71    Zr   0.96663   0.91417   0.85459   1.000
    Zr72    Zr   0.38718   0.39129   0.25810   1.000
    Zr73    Zr   0.38716   0.39130   0.75820   1.000
    Zr74    Zr   0.38718   0.89130   0.25819   1.000
    Zr75    Zr   0.38718   0.89130   0.75820   1.000
    Zr76    Zr   0.88718   0.39130   0.25819   1.000
    Zr77    Zr   0.88718   0.39130   0.75820   1.000
    Zr78    Zr   0.88718   0.89131   0.25819   1.000
    Zr79    Zr   0.88718   0.89131   0.75820   1.000
    Zr80    Zr   0.21668   0.14549   0.08588   1.000
    Zr81    Zr   0.21668   0.14550   0.58589   1.000
    Zr82    Zr   0.21668   0.64550   0.08588   1.000
    Zr83    Zr   0.21669   0.64551   0.58589   1.000
    Zr84    Zr   0.71668   0.14549   0.08588   1.000
    Zr85    Zr   0.71668   0.14550   0.58589   1.000
    Zr86    Zr   0.71669   0.64550   0.08588   1.000
    Zr87    Zr   0.71668   0.64550   0.58589   1.000
    Zr88    Zr   0.13714   0.24182   0.10874   1.000
    Zr89    Zr   0.13714   0.24182   0.60875   1.000
    Zr90    Zr   0.13714   0.74183   0.10874   1.000
    Zr91    Zr   0.13714   0.74183   0.60875   1.000
    Zr92    Zr   0.63714   0.24182   0.10874   1.000
    Zr93    Zr   0.63713   0.24182   0.60875   1.000
    Zr94    Zr   0.63714   0.74183   0.10874   1.000
    Zr95    Zr   0.63714   0.74183   0.60875   1.000
    Zr96    Zr   0.03334   0.08585   0.14544   1.000
    Zr97    Zr   0.03334   0.08585   0.64545   1.000
    Zr98    Zr   0.03335   0.58586   0.14544   1.000
    Zr99    Zr   0.03334   0.58586   0.64545   1.000
    Zr100   Zr   0.53335   0.08585   0.14544   1.000
    Zr101   Zr   0.53334   0.08585   0.64545   1.000
    Zr102   Zr   0.53335   0.58586   0.14544   1.000
    Zr103   Zr   0.53335   0.58586   0.64545   1.000
    Zr104   Zr   0.11282   0.10871   0.24182   1.000
    Zr105   Zr   0.11282   0.10871   0.74183   1.000
    Zr106   Zr   0.11282   0.60872   0.24182   1.000
    Zr107   Zr   0.11282   0.60872   0.74183   1.000
    Zr108   Zr   0.61282   0.10871   0.24182   1.000
    Zr109   Zr   0.61282   0.10871   0.74183   1.000
    Zr110   Zr   0.61282   0.60872   0.24182   1.000
    Zr111   Zr   0.61282   0.60872   0.74183   1.000
    O112    O    0.69315   0.67130   0.07793   1.000
    O113    O    0.65338   0.71947   0.08936   1.000
    O114    O    0.69315   0.17130   0.07793   1.000
    O115    O    0.65338   0.21946   0.08936   1.000
    O116    O    0.19315   0.67130   0.07793   1.000
    O117    O    0.15338   0.71947   0.08936   1.000
    O118    O    0.19315   0.17130   0.07793   1.000
    O119    O    0.15338   0.21946   0.08936   1.000
    O120    O    0.63107   0.72728   0.16074   1.000
    O121    O    0.63106   0.22727   0.16074   1.000
    O122    O    0.13107   0.72728   0.16074   1.000
    O123    O    0.13106   0.22727   0.16074   1.000
    O124    O    0.55687   0.07790   0.17125   1.000
    O125    O    0.55687   0.57791   0.17125   1.000
    O126    O    0.05687   0.57791   0.17125   1.000
    O127    O    0.05687   0.07790   0.17125   1.000
    O128    O    0.59660   0.58934   0.21945   1.000
    O129    O    0.59660   0.08933   0.21945   1.000
    O130    O    0.09660   0.58934   0.21945   1.000
    O131    O    0.09660   0.08933   0.21945   1.000
    O132    O    0.61891   0.66073   0.22728   1.000
    O133    O    0.61890   0.16072   0.22728   1.000
    O134    O    0.11890   0.16072   0.22728   1.000
    O135    O    0.11891   0.66073   0.22728   1.000
    O136    O    0.38110   0.33929   0.27265   1.000
    O137    O    0.40340   0.41067   0.28052   1.000
    O138    O    0.38110   0.83930   0.27272   1.000
    O139    O    0.40340   0.91068   0.28056   1.000
    O140    O    0.88110   0.83930   0.27269   1.000
    O141    O    0.90340   0.91068   0.28054   1.000
    O142    O    0.88110   0.33929   0.27272   1.000
    O143    O    0.90340   0.41068   0.28056   1.000
    O144    O    0.36894   0.27273   0.33923   1.000
    O145    O    0.86894   0.77274   0.33923   1.000
    O146    O    0.36894   0.77274   0.33923   1.000
    O147    O    0.86894   0.27273   0.33926   1.000
    O148    O    0.94314   0.92211   0.32873   1.000
    O149    O    0.44313   0.42210   0.32875   1.000
    O150    O    0.44314   0.92211   0.32875   1.000
    O151    O    0.94314   0.42210   0.32875   1.000
    O152    O    0.34663   0.78055   0.41061   1.000
    O153    O    0.34663   0.28054   0.41064   1.000
    O154    O    0.84663   0.78055   0.41064   1.000
    O155    O    0.84662   0.28054   0.41064   1.000
    O156    O    0.80686   0.82871   0.42206   1.000
    O157    O    0.30685   0.32870   0.42206   1.000
    O158    O    0.80685   0.32870   0.42206   1.000
    O159    O    0.30685   0.82871   0.42207   1.000
    O160    O    0.19314   0.17130   0.57794   1.000
    O161    O    0.15337   0.21946   0.58937   1.000
    O162    O    0.69314   0.67131   0.57794   1.000
    O163    O    0.65337   0.71947   0.58937   1.000
    O164    O    0.19314   0.67131   0.57794   1.000
    O165    O    0.15337   0.71947   0.58937   1.000
    O166    O    0.69314   0.17130   0.57794   1.000
    O167    O    0.65337   0.21946   0.58937   1.000
    O168    O    0.13106   0.22727   0.66075   1.000
    O169    O    0.63106   0.22727   0.66075   1.000
    O170    O    0.13106   0.72728   0.66075   1.000
    O171    O    0.63106   0.72728   0.66075   1.000
    O172    O    0.55686   0.57791   0.67126   1.000
    O173    O    0.05686   0.07790   0.67126   1.000
    O174    O    0.55686   0.07790   0.67122   1.000
    O175    O    0.05686   0.57791   0.67126   1.000
    O176    O    0.59660   0.08933   0.71941   1.000
    O177    O    0.59660   0.58934   0.71945   1.000
    O178    O    0.09660   0.58934   0.71945   1.000
    O179    O    0.09660   0.08933   0.71945   1.000
    O180    O    0.11890   0.66073   0.72730   1.000
    O181    O    0.61890   0.16072   0.72730   1.000
    O182    O    0.61890   0.66073   0.72730   1.000
    O183    O    0.11890   0.16072   0.72730   1.000
    O184    O    0.38109   0.33929   0.77274   1.000
    O185    O    0.40340   0.41068   0.78057   1.000
    O186    O    0.38110   0.83930   0.77270   1.000
    O187    O    0.40339   0.91068   0.78055   1.000
    O188    O    0.88109   0.33929   0.77270   1.000
    O189    O    0.90340   0.41067   0.78058   1.000
    O190    O    0.88109   0.83930   0.77274   1.000
    O191    O    0.90340   0.91069   0.78058   1.000
    O192    O    0.86893   0.27273   0.83923   1.000
    O193    O    0.36894   0.77274   0.83923   1.000
    O194    O    0.86893   0.77274   0.83923   1.000
    O195    O    0.36894   0.27274   0.83927   1.000
    O196    O    0.44313   0.92211   0.82874   1.000
    O197    O    0.44313   0.42210   0.82877   1.000
    O198    O    0.94313   0.42210   0.82877   1.000
    O199    O    0.94313   0.92211   0.82877   1.000
    O200    O    0.84662   0.78055   0.91062   1.000
    O201    O    0.34663   0.78055   0.91065   1.000
    O202    O    0.84663   0.28055   0.91065   1.000
    O203    O    0.34662   0.28054   0.91066   1.000
    O204    O    0.80685   0.32871   0.92207   1.000
    O205    O    0.80685   0.82871   0.92207   1.000
    O206    O    0.30684   0.32870   0.92208   1.000
    O207    O    0.30685   0.82871   0.92208   1.000
    N208    N    0.39510   0.77594   0.57951   1.000
    O209    O    0.36945   0.78595   0.52262   1.000
    O210    O    0.40580   0.77432   0.65945   1.000
    O211    O    0.46829   0.75568   0.64084   1.000
    N212    N    0.85492   0.07954   0.77596   1.000
    O213    O    0.88058   0.02265   0.78598   1.000
    O214    O    0.84422   0.15948   0.77431   1.000
    O215    O    0.78171   0.14084   0.75570   1.000
    N216    N    0.89511   0.77594   0.07951   1.000
    O217    O    0.86945   0.78595   0.02262   1.000
    O218    O    0.90581   0.77432   0.15944   1.000
    O219    O    0.96830   0.75568   0.14083   1.000
    N220    N    0.89511   0.77594   0.57951   1.000
    O221    O    0.86946   0.78595   0.52262   1.000
    O222    O    0.90580   0.77432   0.65945   1.000
    O223    O    0.96829   0.75568   0.64082   1.000
    N224    N    0.35492   0.57954   0.77597   1.000
    O225    O    0.34422   0.65949   0.77432   1.000
    O226    O    0.28171   0.64085   0.75571   1.000
    O227    O    0.38059   0.52266   0.78598   1.000
    N228    N    0.85493   0.57954   0.27595   1.000
    O229    O    0.88058   0.52266   0.28597   1.000
    O230    O    0.84422   0.65949   0.27430   1.000
    O231    O    0.78172   0.64085   0.25569   1.000
    N232    N    0.89510   0.27593   0.57951   1.000
    O233    O    0.86944   0.28594   0.52262   1.000
    O234    O    0.90580   0.27431   0.65945   1.000
    O235    O    0.96829   0.25567   0.64084   1.000
    N236    N    0.85492   0.57954   0.77596   1.000
    O237    O    0.84422   0.65949   0.77433   1.000
    O238    O    0.78171   0.64085   0.75570   1.000
    O239    O    0.88057   0.52266   0.78598   1.000
    N240    N    0.10490   0.22408   0.92050   1.000
    O241    O    0.13055   0.21406   0.97737   1.000
    O242    O    0.09420   0.22570   0.84055   1.000
    O243    O    0.03171   0.24433   0.85916   1.000
    N244    N    0.64509   0.42047   0.22404   1.000
    O245    O    0.65579   0.34053   0.22568   1.000
    O246    O    0.71830   0.35917   0.24431   1.000
    O247    O    0.61943   0.47736   0.21403   1.000
    N248    N    0.14509   0.92048   0.22404   1.000
    O249    O    0.15579   0.84054   0.22568   1.000
    O250    O    0.21830   0.85918   0.24431   1.000
    O251    O    0.11944   0.97736   0.21401   1.000
    N252    N    0.60491   0.22408   0.92050   1.000
    O253    O    0.59420   0.22570   0.84056   1.000
    O254    O    0.53171   0.24434   0.85918   1.000
    O255    O    0.63056   0.21407   0.97739   1.000
    N256    N    0.35492   0.07954   0.27595   1.000
    O257    O    0.38057   0.02265   0.28597   1.000
    O258    O    0.34422   0.15948   0.27430   1.000
    O259    O    0.28171   0.14084   0.25569   1.000
    N260    N    0.35492   0.57954   0.27596   1.000
    O261    O    0.34422   0.65949   0.27432   1.000
    O262    O    0.28171   0.64085   0.25569   1.000
    O263    O    0.38057   0.52265   0.28597   1.000
    N264    N    0.10491   0.72409   0.92050   1.000
    O265    O    0.13056   0.71407   0.97739   1.000
    O266    O    0.09420   0.72570   0.84056   1.000
    O267    O    0.03171   0.74434   0.85918   1.000
    N268    N    0.85492   0.07954   0.27595   1.000
    O269    O    0.88058   0.02265   0.28596   1.000
    O270    O    0.84422   0.15948   0.27432   1.000
    O271    O    0.78171   0.14084   0.25569   1.000
    N272    N    0.64509   0.92048   0.22405   1.000
    O273    O    0.65579   0.84054   0.22568   1.000
    O274    O    0.71830   0.85918   0.24430   1.000
    O275    O    0.61943   0.97736   0.21403   1.000
    N276    N    0.60491   0.72409   0.92050   1.000
    O277    O    0.63056   0.71407   0.97739   1.000
    O278    O    0.59420   0.72571   0.84056   1.000
    O279    O    0.53171   0.74434   0.85917   1.000
    N280    N    0.10490   0.22408   0.42050   1.000
    O281    O    0.09420   0.22570   0.34055   1.000
    O282    O    0.03171   0.24433   0.35918   1.000
    O283    O    0.13055   0.21406   0.47739   1.000
    N284    N    0.14509   0.42047   0.22404   1.000
    O285    O    0.11943   0.47736   0.21401   1.000
    O286    O    0.15579   0.34053   0.22568   1.000
    O287    O    0.21830   0.35917   0.24429   1.000
    N288    N    0.39511   0.77594   0.07950   1.000
    O289    O    0.36946   0.78595   0.02262   1.000
    O290    O    0.40581   0.77432   0.15944   1.000
    O291    O    0.46830   0.75568   0.14081   1.000
    N292    N    0.60490   0.22408   0.42049   1.000
    O293    O    0.63055   0.21406   0.47737   1.000
    O294    O    0.59421   0.22569   0.34054   1.000
    O295    O    0.53171   0.24433   0.35916   1.000
    N296    N    0.14508   0.42047   0.72406   1.000
    O297    O    0.11943   0.47736   0.71404   1.000
    O298    O    0.15578   0.34053   0.72569   1.000
    O299    O    0.21829   0.35917   0.74432   1.000
    N300    N    0.39510   0.27593   0.57952   1.000
    O301    O    0.36945   0.28594   0.52263   1.000
    O302    O    0.40580   0.27431   0.65947   1.000
    O303    O    0.46829   0.25567   0.64084   1.000
    N304    N    0.35491   0.07954   0.77597   1.000
    O305    O    0.38056   0.02265   0.78597   1.000
    O306    O    0.34421   0.15948   0.77433   1.000
    O307    O    0.28170   0.14084   0.75570   1.000
    N308    N    0.10490   0.72408   0.42047   1.000
    O309    O    0.09421   0.72570   0.34054   1.000
    O310    O    0.03171   0.74434   0.35915   1.000
    O311    O    0.13055   0.71407   0.47736   1.000
    N312    N    0.39510   0.27593   0.07951   1.000
    O313    O    0.36944   0.28594   0.02262   1.000
    O314    O    0.40580   0.27431   0.15943   1.000
    O315    O    0.46829   0.25567   0.14082   1.000
    N316    N    0.14508   0.92048   0.72406   1.000
    O317    O    0.15579   0.84054   0.72569   1.000
    O318    O    0.21829   0.85918   0.74430   1.000
    O319    O    0.11943   0.97736   0.71404   1.000
    N320    N    0.89511   0.27593   0.07950   1.000
    O321    O    0.86946   0.28594   0.02262   1.000
    O322    O    0.90580   0.27431   0.15944   1.000
    O323    O    0.96830   0.25567   0.14081   1.000
    N324    N    0.64509   0.42047   0.72405   1.000
    O325    O    0.65578   0.34053   0.72569   1.000
    O326    O    0.71829   0.35917   0.74430   1.000
    O327    O    0.61943   0.47736   0.71404   1.000
    N328    N    0.64509   0.92048   0.72400   1.000
    O329    O    0.65579   0.84054   0.72566   1.000
    O330    O    0.71829   0.85918   0.74429   1.000
    O331    O    0.61943   0.97736   0.71399   1.000
    N332    N    0.60491   0.72409   0.42049   1.000
    O333    O    0.59421   0.72571   0.34055   1.000
    O334    O    0.53172   0.74434   0.35917   1.000
    O335    O    0.63056   0.71407   0.47738   1.000
loop_
    _geom_bond_atom_site_label_1
    _geom_bond_atom_site_label_2
    _geom_bond_distance
    _geom_bond_site_symmetry_2
    _ccdc_geom_bond_type
    Zr38   O112      0.62231      .   S
    Zr86   O112      0.62231      .   S
    Zr38   O113      0.64896      .   S
    Zr94   O113      0.64896      .   S
    Zr36   O114      0.62232      .   S
    Zr84   O114      0.62232      .   S
    Zr36   O115      0.64895      .   S
    Zr92   O115      0.64895      .   S
    Zr34   O116      0.62232      .   S
    Zr82   O116      0.62232      .   S
    Zr34   O117      0.64896      .   S
    Zr90   O117      0.64896      .   S
    Zr32   O118      0.62232      .   S
    Zr80   O118      0.62232      .   S
    Zr32   O119      0.64895      .   S
    Zr88   O119      0.64895      .   S
    Zr94   O120      1.11950      .   S
    Zr14   O120      1.11950      .   S
    Zr92   O121      1.11950      .   S
    Zr12   O121      1.11950      .   S
    Zr90   O122      1.11950      .   S
    Zr10   O122      1.11950      .   S
    Zr88   O123      1.11950      .   S
    Zr8    O123      1.11950      .   S
    Zr100  O124      0.62233      .   S
    Zr44   O124      0.62233      .   S
    Zr102  O125      0.62230      .   S
    Zr46   O125      0.62230      .   S
    Zr98   O126      0.62230      .   S
    Zr42   O126      0.62230      .   S
    Zr96   O127      0.62234      .   S
    Zr40   O127      0.62234      .   S
    Zr46   O128      0.64896      .   S
    Zr110  O128      0.64896      .   S
    Zr44   O129      0.64893      .   S
    Zr108  O129      0.64893      .   S
    Zr42   O130      0.64896      .   S
    Zr106  O130      0.64896      .   S
    Zr40   O131      0.64893      .   S
    Zr104  O131      0.64893      .   S
    Zr14   O132      1.11941      .   S
    Zr110  O132      1.11941      .   S
    Zr12   O133      1.11941      .   S
    Zr108  O133      1.11941      .   S
    Zr8    O134      1.11941      .   S
    Zr104  O134      1.11941      .   S
    Zr10   O135      1.11941      .   S
    Zr106  O135      1.11941      .   S
    Zr72   O136      1.11951      .   S
    Zr0    O136      1.11951      .   S
    Zr72   O137      0.64955      .   S
    Zr24   O137      0.64955      .   S
    Zr74   O138      1.11942      .   S
    Zr2    O138      1.11942      .   S
    Zr74   O139      0.64895      .   S
    Zr26   O139      0.64895      .   S
    Zr78   O140      1.11927      .   S
    Zr6    O140      1.11927      .   S
    Zr78   O141      0.64869      .   S
    Zr30   O141      0.64869      .   S
    Zr76   O142      1.11942      .   S
    Zr4    O142      1.11942      .   S
    Zr76   O143      0.64895      .   S
    Zr28   O143      0.64895      .   S
    Zr0    O144      1.12001      .   S
    Zr56   O144      1.12001      .   S
    Zr6    O145      1.12001      .   S
    Zr62   O145      1.12001      .   S
    Zr2    O146      1.11882      .   S
    Zr58   O146      1.11882      .   S
    Zr4    O147      1.11949      .   S
    Zr60   O147      1.11949      .   S
    Zr30   O148      0.62260      .   S
    Zr70   O148      0.62260      .   S
    Zr24   O149      0.62236      .   S
    Zr64   O149      0.62236      .   S
    Zr26   O150      0.62230      .   S
    Zr66   O150      0.62230      .   S
    Zr28   O151      0.62228      .   S
    Zr68   O151      0.62228      .   S
    Zr58   O152      0.64933      .   S
    Zr18   O152      0.64933      .   S
    Zr56   O153      0.64893      .   S
    Zr16   O153      0.64893      .   S
    Zr62   O154      0.64892      .   S
    Zr22   O154      0.64892      .   S
    Zr60   O155      0.64874      .   S
    Zr20   O155      0.64874      .   S
    Zr54   O156      0.62237      .   S
    Zr22   O156      0.62237      .   S
    Zr48   O157      0.62237      .   S
    Zr16   O157      0.62237      .   S
    Zr52   O158      0.62227      .   S
    Zr20   O158      0.62227      .   S
    Zr50   O159      0.62232      .   S
    Zr18   O159      0.62232      .   S
    Zr33   O160      0.62231      .   S
    Zr81   O160      0.62231      .   S
    Zr33   O161      0.64894      .   S
    Zr89   O161      0.64894      .   S
    Zr39   O162      0.62231      .   S
    Zr87   O162      0.62231      .   S
    Zr39   O163      0.64895      .   S
    Zr95   O163      0.64895      .   S
    Zr35   O164      0.62231      .   S
    Zr83   O164      0.62231      .   S
    Zr35   O165      0.64895      .   S
    Zr91   O165      0.64895      .   S
    Zr37   O166      0.62231      .   S
    Zr85   O166      0.62231      .   S
    Zr37   O167      0.64895      .   S
    Zr93   O167      0.64895      .   S
    Zr89   O168      1.11951      .   S
    Zr9    O168      1.11951      .   S
    Zr93   O169      1.11951      .   S
    Zr13   O169      1.11951      .   S
    Zr91   O170      1.11951      .   S
    Zr11   O170      1.11951      .   S
    Zr95   O171      1.11950      .   S
    Zr15   O171      1.11950      .   S
    Zr103  O172      0.62231      .   S
    Zr47   O172      0.62231      .   S
    Zr97   O173      0.62233      .   S
    Zr41   O173      0.62233      .   S
    Zr101  O174      0.62163      .   S
    Zr45   O174      0.62163      .   S
    Zr99   O175      0.62234      .   S
    Zr43   O175      0.62234      .   S
    Zr45   O176      0.64953      .   S
    Zr109  O176      0.64953      .   S
    Zr47   O177      0.64898      .   S
    Zr111  O177      0.64898      .   S
    Zr43   O178      0.64894      .   S
    Zr107  O178      0.64894      .   S
    Zr41   O179      0.64895      .   S
    Zr105  O179      0.64895      .   S
    Zr11   O180      1.11940      .   S
    Zr107  O180      1.11940      .   S
    Zr13   O181      1.11940      .   S
    Zr109  O181      1.11940      .   S
    Zr15   O182      1.11941      .   S
    Zr111  O182      1.11941      .   S
    Zr9    O183      1.11942      .   S
    Zr105  O183      1.11942      .   S
    Zr73   O184      1.11941      .   S
    Zr1    O184      1.11941      .   S
    Zr73   O185      0.64896      .   S
    Zr25   O185      0.64896      .   S
    Zr75   O186      1.11924      .   S
    Zr3    O186      1.11924      .   S
    Zr75   O187      0.64854      .   S
    Zr27   O187      0.64854      .   S
    Zr77   O188      1.11925      .   S
    Zr5    O188      1.11925      .   S
    Zr77   O189      0.64894      .   S
    Zr29   O189      0.64894      .   S
    Zr79   O190      1.11942      .   S
    Zr7    O190      1.11942      .   S
    Zr79   O191      0.64895      .   S
    Zr31   O191      0.64895      .   S
    Zr5    O192      1.12011      .   S
    Zr61   O192      1.12011      .   S
    Zr3    O193      1.12010      .   S
    Zr59   O193      1.12010      .   S
    Zr7    O194      1.11873      .   S
    Zr63   O194      1.11873      .   S
    Zr1    O195      1.11950      .   S
    Zr57   O195      1.11950      .   S
    Zr27   O196      0.62279      .   S
    Zr67   O196      0.62279      .   S
    Zr25   O197      0.62232      .   S
    Zr65   O197      0.62232      .   S
    Zr29   O198      0.62229      .   S
    Zr69   O198      0.62229      .   S
    Zr31   O199      0.62233      .   S
    Zr71   O199      0.62233      .   S
    Zr63   O200      0.64939      .   S
    Zr23   O200      0.64939      .   S
    Zr59   O201      0.64893      .   S
    Zr19   O201      0.64893      .   S
    Zr61   O202      0.64893      .   S
    Zr21   O202      0.64893      .   S
    Zr57   O203      0.64894      .   S
    Zr17   O203      0.64894      .   S
    Zr53   O204      0.62240      .   S
    Zr21   O204      0.62240      .   S
    Zr55   O205      0.62239      .   S
    Zr23   O205      0.62239      .   S
    Zr49   O206      0.62233      .   S
    Zr17   O206      0.62233      .   S
    Zr51   O207      0.62232      .   S
    Zr19   O207      0.62232      .   S
    N208   O209      1.21459      .   S
    Zr18   O209      1.97108      .   S
    N208   O210      1.64083      .   S
    Zr3    O210      2.70013      .   S
    N208   O211      1.60996      .   S
    Zr15   O211      2.66763      .   S
    N212   O213      1.21459      .   S
    Zr31   O213      1.97086  1_565   S
    N212   O214      1.64091      .   S
    Zr5    O214      2.70073      .   S
    N212   O215      1.61004      .   S
    Zr13   O215      2.66786      .   S
    N216   O217      1.21458      .   S
    Zr23   O217      1.97088  1_556   S
    N216   O218      1.64076      .   S
    Zr6    O218      2.70027      .   S
    N216   O219      1.60989      .   S
    Zr10   O219      2.66759  1_455   S
    N220   O221      1.21450      .   S
    Zr22   O221      1.97098      .   S
    N220   O222      1.64093      .   S
    Zr7    O222      2.70166      .   S
    N220   O223      1.60975      .   S
    Zr11   O223      2.66779  1_455   S
    N224   O225      1.64094      .   S
    Zr3    O225      2.70073      .   S
    N224   O226      1.61005      .   S
    Zr11   O226      2.66786      .   S
    N224   O227      1.21467      .   S
    Zr25   O227      1.97111      .   S
    N228   O229      1.21466      .   S
    Zr28   O229      1.97111      .   S
    N228   O230      1.64095      .   S
    Zr6    O230      2.70076      .   S
    N228   O231      1.61004      .   S
    Zr14   O231      2.66780      .   S
    N232   O233      1.21469      .   S
    Zr20   O233      1.97139      .   S
    N232   O234      1.64083      .   S
    Zr5    O234      2.70012      .   S
    N232   O235      1.60997      .   S
    Zr9    O235      2.66766  1_455   S
    N236   O237      1.64097      .   S
    Zr7    O237      2.70089      .   S
    N236   O238      1.61004      .   S
    Zr15   O238      2.66781      .   S
    N236   O239      1.21467      .   S
    Zr29   O239      1.97112      .   S
    N240   O241      1.21424      .   S
    Zr32   O241      1.97123  1_554   S
    N240   O242      1.64101      .   S
    Zr9    O242      2.70101      .   S
    N240   O243      1.61012      .   S
    Zr5    O243      2.66808  1_655   S
    N244   O245      1.64097      .   S
    Zr12   O245      2.70089      .   S
    N244   O246      1.61002      .   S
    Zr4    O246      2.66776      .   S
    N244   O247      1.21466      .   S
    Zr46   O247      1.97111      .   S
    N248   O249      1.64095      .   S
    Zr10   O249      2.70084      .   S
    N248   O250      1.61002      .   S
    Zr2    O250      2.66782      .   S
    N248   O251      1.21463      .   S
    Zr40   O251      1.97081  1_545   S
    N252   O253      1.64107      .   S
    Zr13   O253      2.70105      .   S
    N252   O254      1.60994      .   S
    Zr1    O254      2.66763      .   S
    N252   O255      1.21452      .   S
    Zr36   O255      1.97082  1_554   S
    N256   O257      1.21460      .   S
    Zr26   O257      1.97087  1_565   S
    N256   O258      1.64093      .   S
    Zr0    O258      2.70074      .   S
    N256   O259      1.61001      .   S
    Zr8    O259      2.66779      .   S
    N260   O261      1.64096      .   S
    Zr2    O261      2.70088      .   S
    N260   O262      1.61001      .   S
    Zr10   O262      2.66776      .   S
    N260   O263      1.21465      .   S
    Zr24   O263      1.97111      .   S
    N264   O265      1.21454      .   S
    Zr34   O265      1.97084  1_554   S
    N264   O266      1.64106      .   S
    Zr11   O266      2.70103      .   S
    N264   O267      1.60992      .   S
    Zr7    O267      2.66762  1_655   S
    N268   O269      1.21457      .   S
    Zr30   O269      1.97079  1_565   S
    N268   O270      1.64095      .   S
    Zr4    O270      2.70086      .   S
    N268   O271      1.61002      .   S
    Zr12   O271      2.66777      .   S
    N272   O273      1.64093      .   S
    Zr14   O273      2.70086      .   S
    N272   O274      1.60994      .   S
    Zr6    O274      2.66750      .   S
    N272   O275      1.21459      .   S
    Zr44   O275      1.97085  1_545   S
    N276   O277      1.21453      .   S
    Zr38   O277      1.97083  1_554   S
    N276   O278      1.64106      .   S
    Zr15   O278      2.70104      .   S
    N276   O279      1.61019      .   S
    Zr3    O279      2.66814      .   S
    N280   O281      1.64109      .   S
    Zr8    O281      2.70109      .   S
    N280   O282      1.60994      .   S
    Zr4    O282      2.66760  1_655   S
    N280   O283      1.21459      .   S
    Zr33   O283      1.97106      .   S
    N284   O285      1.21471      .   S
    Zr42   O285      1.97105      .   S
    N284   O286      1.64096      .   S
    Zr8    O286      2.70085      .   S
    N284   O287      1.60998      .   S
    Zr0    O287      2.66760      .   S
    N288   O289      1.21447      .   S
    Zr19   O289      1.97078  1_556   S
    N288   O290      1.64091      .   S
    Zr2    O290      2.70152      .   S
    N288   O291      1.60975      .   S
    Zr14   O291      2.66778      .   S
    N292   O293      1.21435      .   S
    Zr37   O293      1.97143      .   S
    N292   O294      1.64103      .   S
    Zr12   O294      2.70102      .   S
    N292   O295      1.61008      .   S
    Zr0    O295      2.66799      .   S
    N296   O297      1.21466      .   S
    Zr43   O297      1.97111      .   S
    N296   O298      1.64095      .   S
    Zr9    O298      2.70085      .   S
    N296   O299      1.61000      .   S
    Zr1    O299      2.66776      .   S
    N300   O301      1.21464      .   S
    Zr16   O301      1.97113      .   S
    N300   O302      1.64113      .   S
    Zr1    O302      2.70114      .   S
    N300   O303      1.60990      .   S
    Zr13   O303      2.66754      .   S
    N304   O305      1.21455      .   S
    Zr27   O305      1.97072  1_565   S
    N304   O306      1.64096      .   S
    Zr1    O306      2.70089      .   S
    N304   O307      1.61000      .   S
    Zr9    O307      2.66775      .   S
    N308   O309      1.64084      .   S
    Zr10   O309      2.70084      .   S
    N308   O310      1.60994      .   S
    Zr6    O310      2.66794  1_655   S
    N308   O311      1.21453      .   S
    Zr35   O311      1.97160      .   S
    N312   O313      1.21450      .   S
    Zr17   O313      1.97072  1_556   S
    N312   O314      1.64054      .   S
    Zr0    O314      2.70053      .   S
    N312   O315      1.60974      .   S
    Zr12   O315      2.66780      .   S
    N316   O317      1.64093      .   S
    Zr11   O317      2.70085      .   S
    N316   O318      1.60993      .   S
    Zr3    O318      2.66749      .   S
    N316   O319      1.21459      .   S
    Zr41   O319      1.97086  1_545   S
    N320   O321      1.21446      .   S
    Zr21   O321      1.97077  1_556   S
    N320   O322      1.64092      .   S
    Zr4    O322      2.70155      .   S
    N320   O323      1.60975      .   S
    Zr8    O323      2.66774  1_455   S
    N324   O325      1.64097      .   S
    Zr13   O325      2.70086      .   S
    N324   O326      1.60994      .   S
    Zr5    O326      2.66750      .   S
    N324   O327      1.21466      .   S
    Zr47   O327      1.97112      .   S
    N328   O329      1.64095      .   S
    Zr15   O329      2.70077      .   S
    N328   O330      1.61012      .   S
    Zr7    O330      2.66790      .   S
    N328   O331      1.21457      .   S
    Zr45   O331      1.97098  1_545   S
    N332   O333      1.64107      .   S
    Zr14   O333      2.70106      .   S
    N332   O334      1.60991      .   S
    Zr2    O334      2.66758      .   S
    N332   O335      1.21460      .   S
    Zr39   O335      1.97108      .   S
